File C:\Users\j-b-j\Documents\Calcpad-7.5.7\plate_6x4_replica.$2k was saved on m/d/yy at h:mm:ss
 
TABLE:  "ACTIVE DEGREES OF FREEDOM"
   UX=Yes   UY=Yes   UZ=Yes   RX=Yes   RY=Yes   RZ=Yes
 
TABLE:  "ANALYSIS OPTIONS"
   Solver=Advanced   SolverProc=Auto   Force32Bit=No   StiffCase=None   GeomMod=None   HingeOpt="In Elements"   NumAThreads=0   MaxFileSize=0   NumDThreads=0   NumRThreads=0   UseMMFiles="Program Determined"   AllowDiff=No
 
TABLE:  "AREA LOADS - UNIFORM"
   Area=1   LoadPat=LOAD1   CoordSys=GLOBAL   Dir=Z   UnifLoad=10
   Area=2   LoadPat=LOAD1   CoordSys=GLOBAL   Dir=Z   UnifLoad=10
   Area=3   LoadPat=LOAD1   CoordSys=GLOBAL   Dir=Z   UnifLoad=10
   Area=4   LoadPat=LOAD1   CoordSys=GLOBAL   Dir=Z   UnifLoad=10
   Area=5   LoadPat=LOAD1   CoordSys=GLOBAL   Dir=Z   UnifLoad=10
   Area=6   LoadPat=LOAD1   CoordSys=GLOBAL   Dir=Z   UnifLoad=10
   Area=7   LoadPat=LOAD1   CoordSys=GLOBAL   Dir=Z   UnifLoad=10
   Area=8   LoadPat=LOAD1   CoordSys=GLOBAL   Dir=Z   UnifLoad=10
   Area=9   LoadPat=LOAD1   CoordSys=GLOBAL   Dir=Z   UnifLoad=10
   Area=10   LoadPat=LOAD1   CoordSys=GLOBAL   Dir=Z   UnifLoad=10
   Area=11   LoadPat=LOAD1   CoordSys=GLOBAL   Dir=Z   UnifLoad=10
   Area=12   LoadPat=LOAD1   CoordSys=GLOBAL   Dir=Z   UnifLoad=10
   Area=13   LoadPat=LOAD1   CoordSys=GLOBAL   Dir=Z   UnifLoad=10
   Area=14   LoadPat=LOAD1   CoordSys=GLOBAL   Dir=Z   UnifLoad=10
   Area=15   LoadPat=LOAD1   CoordSys=GLOBAL   Dir=Z   UnifLoad=10
   Area=16   LoadPat=LOAD1   CoordSys=GLOBAL   Dir=Z   UnifLoad=10
   Area=17   LoadPat=LOAD1   CoordSys=GLOBAL   Dir=Z   UnifLoad=10
   Area=18   LoadPat=LOAD1   CoordSys=GLOBAL   Dir=Z   UnifLoad=10
   Area=19   LoadPat=LOAD1   CoordSys=GLOBAL   Dir=Z   UnifLoad=10
   Area=20   LoadPat=LOAD1   CoordSys=GLOBAL   Dir=Z   UnifLoad=10
# ... 4 like lines cut
 
TABLE:  "AREA SECTION ASSIGNMENTS"
   Area=1   Section=SSEC1   MatProp=Default
   Area=2   Section=SSEC1   MatProp=Default
   Area=3   Section=SSEC1   MatProp=Default
   Area=4   Section=SSEC1   MatProp=Default
   Area=5   Section=SSEC1   MatProp=Default
   Area=6   Section=SSEC1   MatProp=Default
   Area=7   Section=SSEC1   MatProp=Default
   Area=8   Section=SSEC1   MatProp=Default
   Area=9   Section=SSEC1   MatProp=Default
   Area=10   Section=SSEC1   MatProp=Default
   Area=11   Section=SSEC1   MatProp=Default
   Area=12   Section=SSEC1   MatProp=Default
   Area=13   Section=SSEC1   MatProp=Default
   Area=14   Section=SSEC1   MatProp=Default
   Area=15   Section=SSEC1   MatProp=Default
   Area=16   Section=SSEC1   MatProp=Default
   Area=17   Section=SSEC1   MatProp=Default
   Area=18   Section=SSEC1   MatProp=Default
   Area=19   Section=SSEC1   MatProp=Default
   Area=20   Section=SSEC1   MatProp=Default
# ... 4 like lines cut
 
TABLE:  "AREA SECTION PROPERTIES"
   Section=SSEC1   Material=CONC   MatAngle=0   AreaType=Shell   Type=Plate-Thin   Thickness=0.1   BendThick=0.1   Color=Yellow   F11Mod=1   F22Mod=1   F12Mod=1   M11Mod=1   M22Mod=1   M12Mod=1   V13Mod=1   V23Mod=1   MMod=1   WMod=1
 
TABLE:  "AREA SECTION PROPERTY DESIGN PARAMETERS"
   Section=SSEC1   RebarMat=None   RebarOpt=Default
 
TABLE:  "AREA SECTION PROPERTY - TIME DEPENDENT"
   Section=SSEC1   TypeSize=Auto   AutoSFSize=1
 
TABLE:  "AUTO WAVE 3 - WAVE CHARACTERISTICS - GENERAL"
   WaveChar=Default   WaveType="From Theory"   KinFactor=1   SWaterDepth=45   WaveHeight=18   WavePeriod=12   WaveTheory=Linear
 
TABLE:  "CASE - MODAL 1 - GENERAL"
   Case=MODAL   ModeType=Eigen   MaxNumModes=12   MinNumModes=1   EigenShift=0   EigenCutoff=0   EigenTol=1E-09   AutoShift=Yes
 
TABLE:  "CASE - STATIC 1 - LOAD ASSIGNMENTS"
   Case=DEAD   LoadType="Load pattern"   LoadName=DEAD   LoadSF=1
   Case=LOAD1   LoadType="Load pattern"   LoadName=LOAD1   LoadSF=1
 
TABLE:  "CONNECTIVITY - AREA"
   Area=1   Joint1=1   Joint2=6   Joint3=7   Joint4=2   GUID=4ff3856b-10b8-411a-adfd-7963eb21aa6b
   Area=2   Joint1=2   Joint2=7   Joint3=8   Joint4=3   GUID=cded8ccd-3497-4a2c-90d9-bc8812ce1e36
   Area=3   Joint1=3   Joint2=8   Joint3=9   Joint4=4   GUID=15f4051b-ce86-4781-b2ff-8a8d4ba17af6
   Area=4   Joint1=4   Joint2=9   Joint3=10   Joint4=5   GUID=0344ec81-9c3a-4830-a8d7-9b4ecd3a3a98
   Area=5   Joint1=6   Joint2=11   Joint3=12   Joint4=7   GUID=92b2c417-1330-4509-96a3-87233ac27df5
   Area=6   Joint1=7   Joint2=12   Joint3=13   Joint4=8   GUID=216a270d-69e9-4560-af22-a5272af99f89
   Area=7   Joint1=8   Joint2=13   Joint3=14   Joint4=9   GUID=be247764-8433-4709-9bce-100aac13f60f
   Area=8   Joint1=9   Joint2=14   Joint3=15   Joint4=10   GUID=9aa5f04c-e669-4653-a6a6-5f2d39487aea
   Area=9   Joint1=11   Joint2=16   Joint3=17   Joint4=12   GUID=4a9c83f4-d573-4861-825e-ec93802e3dc2
   Area=10   Joint1=12   Joint2=17   Joint3=18   Joint4=13   GUID=7e23da52-1f3d-4f5a-98b6-f098e1d485e6
   Area=11   Joint1=13   Joint2=18   Joint3=19   Joint4=14   GUID=673763e4-b6fc-4e75-adf4-0f1343c0f15c
   Area=12   Joint1=14   Joint2=19   Joint3=20   Joint4=15   GUID=a3058717-d867-4b24-9f8b-0f688c8c1d96
   Area=13   Joint1=16   Joint2=21   Joint3=22   Joint4=17   GUID=ca577d42-6485-49f5-9969-7a563da5841a
   Area=14   Joint1=17   Joint2=22   Joint3=23   Joint4=18   GUID=f53f588d-8926-4733-888f-b93053e1070b
   Area=15   Joint1=18   Joint2=23   Joint3=24   Joint4=19   GUID=7828d94a-f406-43be-9426-1efe678523c9
   Area=16   Joint1=19   Joint2=24   Joint3=25   Joint4=20   GUID=481dce30-3a2e-4bc0-ac38-050ee7bf00cb
   Area=17   Joint1=21   Joint2=26   Joint3=27   Joint4=22   GUID=4d0a3eb3-30cd-40e7-9ab3-5c0a56f3000c
   Area=18   Joint1=22   Joint2=27   Joint3=28   Joint4=23   GUID=05aea6ed-3713-4845-b774-58062d22aad7
   Area=19   Joint1=23   Joint2=28   Joint3=29   Joint4=24   GUID=b2d6efa1-f488-44ae-b9bd-53aae16b5ef4
   Area=20   Joint1=24   Joint2=29   Joint3=30   Joint4=25   GUID=29cd556a-4a0d-4846-a44b-ec9c827aac75
   Area=21   Joint1=26   Joint2=31   Joint3=32   Joint4=27   GUID=b142d59e-8ce8-4ee9-936d-a8ca8b89eb60
   Area=22   Joint1=27   Joint2=32   Joint3=33   Joint4=28   GUID=624a8559-8f25-48ee-a23e-4ccfaadc3e78
   Area=23   Joint1=28   Joint2=33   Joint3=34   Joint4=29   GUID=7f174c6a-11db-4ad6-a993-bf45704550a3
   Area=24   Joint1=29   Joint2=34   Joint3=35   Joint4=30   GUID=a3771251-013a-4f95-a8e7-e94e9fd8bc3d
 
TABLE:  "COORDINATE SYSTEMS"
   Name=GLOBAL   Type=Cartesian   X=0   Y=0   Z=0   AboutZ=0   AboutY=0   AboutX=0
 
TABLE:  "DATABASE DOCUMENTATION"
 
TABLE:  "DATABASE FORMAT TYPES"
   UnitsCurr=Yes   OverrideE=No
 
TABLE:  "FUNCTION - PLOT FUNCTIONS"
   PlotFunc="Input Energy"   Type=Energy   Component=Input   Mode=All
 
TABLE:  "FUNCTION - POWER SPECTRAL DENSITY - USER"
   Name=UNIFPSD   Frequency=0   Value=1
   Name=UNIFPSD   Frequency=1   Value=1
 
TABLE:  "FUNCTION - RESPONSE SPECTRUM - USER"
   Name=UNIFRS   Period=0   Accel=1   FuncDamp=0.05
   Name=UNIFRS   Period=1   Accel=1
 
TABLE:  "FUNCTION - STEADY STATE - USER"
   Name=UNIFSS   Frequency=0   Value=1
   Name=UNIFSS   Frequency=1   Value=1
 
TABLE:  "FUNCTION - TIME HISTORY - USER"
   Name=RAMPTH   Time=0   Value=0
   Name=RAMPTH   Time=1   Value=1
   Name=RAMPTH   Time=4   Value=1
   Name=UNIFTH   Time=0   Value=1
   Name=UNIFTH   Time=1   Value=1
 
TABLE:  "GROUPS 1 - DEFINITIONS"
   GroupName=ALL   Selection=Yes   SectionCut=Yes   Steel=Yes   Concrete=Yes   Aluminum=Yes   ColdFormed=Yes   Stage=Yes   Bridge=Yes   AutoSeismic=No   AutoWind=No   SelDesSteel=No   SelDesAlum=No   SelDesCold=No   MassWeight=Yes   Color=Red
 
TABLE:  "JOINT COORDINATES"
   Joint=1   CoordSys=GLOBAL   CoordType=Cartesian   XorR=-3   Y=-2   Z=0   SpecialJt=Yes   GUID=9ac16d94-84be-4ee2-af9e-3de3a8c449ef
   Joint=2   CoordSys=GLOBAL   CoordType=Cartesian   XorR=-3   Y=-1   Z=0   SpecialJt=Yes   GUID=5deafe3e-eb2d-49d1-8876-6b5ac8fecc9c
   Joint=3   CoordSys=GLOBAL   CoordType=Cartesian   XorR=-3   Y=0   Z=0   SpecialJt=Yes   GUID=914c1d5c-b1ba-4642-b052-e8c0c9fa2f48
   Joint=4   CoordSys=GLOBAL   CoordType=Cartesian   XorR=-3   Y=1   Z=0   SpecialJt=Yes   GUID=062bce82-9061-4939-be36-23d7b7bbef07
   Joint=5   CoordSys=GLOBAL   CoordType=Cartesian   XorR=-3   Y=2   Z=0   SpecialJt=Yes   GUID=c329e0a3-3c40-4e23-9166-59f1f20470a0
   Joint=6   CoordSys=GLOBAL   CoordType=Cartesian   XorR=-2   Y=-2   Z=0   SpecialJt=Yes   GUID=0ff3a77b-db48-40d7-9193-99e543c5cf80
   Joint=7   CoordSys=GLOBAL   CoordType=Cartesian   XorR=-2   Y=-1   Z=0   SpecialJt=Yes   GUID=3ef521a1-f1e0-4543-b684-08f1cf2c4d76
   Joint=8   CoordSys=GLOBAL   CoordType=Cartesian   XorR=-2   Y=0   Z=0   SpecialJt=Yes   GUID=72dbb46e-4617-480d-bfe4-23b483e96330
   Joint=9   CoordSys=GLOBAL   CoordType=Cartesian   XorR=-2   Y=1   Z=0   SpecialJt=Yes   GUID=20c3cd5f-7afa-4b69-8987-e4d03f018199
   Joint=10   CoordSys=GLOBAL   CoordType=Cartesian   XorR=-2   Y=2   Z=0   SpecialJt=Yes   GUID=15b82a83-ffc8-463e-bb22-603b64c92f0d
   Joint=11   CoordSys=GLOBAL   CoordType=Cartesian   XorR=-1   Y=-2   Z=0   SpecialJt=Yes   GUID=0a46c514-42d2-4e45-b5db-743ccbcd7e30
   Joint=12   CoordSys=GLOBAL   CoordType=Cartesian   XorR=-1   Y=-1   Z=0   SpecialJt=Yes   GUID=48792ea5-93e0-44ef-875c-9a35b11f6925
   Joint=13   CoordSys=GLOBAL   CoordType=Cartesian   XorR=-1   Y=0   Z=0   SpecialJt=Yes   GUID=dd7724af-aba1-4d06-9d33-e824a186f2fc
   Joint=14   CoordSys=GLOBAL   CoordType=Cartesian   XorR=-1   Y=1   Z=0   SpecialJt=Yes   GUID=1974f500-6002-4e02-9beb-805cd2fc925d
   Joint=15   CoordSys=GLOBAL   CoordType=Cartesian   XorR=-1   Y=2   Z=0   SpecialJt=Yes   GUID=5b425698-688e-43a1-951e-cf76aca42091
   Joint=16   CoordSys=GLOBAL   CoordType=Cartesian   XorR=0   Y=-2   Z=0   SpecialJt=Yes   GUID=ec61ca25-0b70-485e-ad38-283ad2542809
   Joint=17   CoordSys=GLOBAL   CoordType=Cartesian   XorR=0   Y=-1   Z=0   SpecialJt=Yes   GUID=eae0d674-dcc9-4201-8368-c55a5f4e9591
   Joint=18   CoordSys=GLOBAL   CoordType=Cartesian   XorR=0   Y=0   Z=0   SpecialJt=Yes   GUID=937344d5-3d0c-4f0c-96e9-3c716e272020
   Joint=19   CoordSys=GLOBAL   CoordType=Cartesian   XorR=0   Y=1   Z=0   SpecialJt=Yes   GUID=7998077a-95ad-4def-b583-8f697757de4a
   Joint=20   CoordSys=GLOBAL   CoordType=Cartesian   XorR=0   Y=2   Z=0   SpecialJt=Yes   GUID=00888ec6-1d1c-47ca-895d-155fc882c9c0
   Joint=21   CoordSys=GLOBAL   CoordType=Cartesian   XorR=1   Y=-2   Z=0   SpecialJt=Yes   GUID=2eeee03b-9ddf-4994-832e-64094a8d4b0c
   Joint=22   CoordSys=GLOBAL   CoordType=Cartesian   XorR=1   Y=-1   Z=0   SpecialJt=Yes   GUID=f0a45a59-4fa6-415e-91cd-f83fc36b046f
   Joint=23   CoordSys=GLOBAL   CoordType=Cartesian   XorR=1   Y=0   Z=0   SpecialJt=Yes   GUID=744e9128-45b1-4877-ac6d-315d3ac1b88c
   Joint=24   CoordSys=GLOBAL   CoordType=Cartesian   XorR=1   Y=1   Z=0   SpecialJt=Yes   GUID=9a8f58fe-e59d-4724-8f9f-07ce66d0f9b9
   Joint=25   CoordSys=GLOBAL   CoordType=Cartesian   XorR=1   Y=2   Z=0   SpecialJt=Yes   GUID=8e03c3ac-1c18-4ad7-9061-079f90d1e9ad
   Joint=26   CoordSys=GLOBAL   CoordType=Cartesian   XorR=2   Y=-2   Z=0   SpecialJt=Yes   GUID=5ca30e30-198a-4d11-80a8-ee54bbefefac
   Joint=27   CoordSys=GLOBAL   CoordType=Cartesian   XorR=2   Y=-1   Z=0   SpecialJt=Yes   GUID=a36d1c45-d180-4720-9192-5ba749d46147
   Joint=28   CoordSys=GLOBAL   CoordType=Cartesian   XorR=2   Y=0   Z=0   SpecialJt=Yes   GUID=cc5920f3-decb-4956-97fa-d738932d6afc
   Joint=29   CoordSys=GLOBAL   CoordType=Cartesian   XorR=2   Y=1   Z=0   SpecialJt=Yes   GUID=7f76a2a2-1e05-4875-9b32-7d61492f5297
   Joint=30   CoordSys=GLOBAL   CoordType=Cartesian   XorR=2   Y=2   Z=0   SpecialJt=Yes   GUID=b234c1e7-d6fa-44cc-a4dd-5baca302ca58
   Joint=31   CoordSys=GLOBAL   CoordType=Cartesian   XorR=3   Y=-2   Z=0   SpecialJt=Yes   GUID=5fb145e0-41ec-4951-bd5c-50c7d6499c7b
   Joint=32   CoordSys=GLOBAL   CoordType=Cartesian   XorR=3   Y=-1   Z=0   SpecialJt=Yes   GUID=065387f0-48f4-4da0-b597-c9228597fedb
   Joint=33   CoordSys=GLOBAL   CoordType=Cartesian   XorR=3   Y=0   Z=0   SpecialJt=Yes   GUID=63eb1b50-4acf-4fea-8c1a-8be6bb2c3e8f
   Joint=34   CoordSys=GLOBAL   CoordType=Cartesian   XorR=3   Y=1   Z=0   SpecialJt=Yes   GUID=d00faa38-d428-4d77-b065-2accc91e5210
   Joint=35   CoordSys=GLOBAL   CoordType=Cartesian   XorR=3   Y=2   Z=0   SpecialJt=Yes   GUID=b00468cf-7802-47e0-a5ba-1915117dfca1
 
TABLE:  "JOINT PATTERN DEFINITIONS"
   Pattern=Default
 
TABLE:  "JOINT RESTRAINT ASSIGNMENTS"
   Joint=1   U1=No   U2=No   U3=Yes   R1=Yes   R2=Yes   R3=No
   Joint=2   U1=No   U2=No   U3=Yes   R1=Yes   R2=No   R3=No
   Joint=3   U1=No   U2=No   U3=Yes   R1=Yes   R2=No   R3=No
   Joint=4   U1=No   U2=No   U3=Yes   R1=Yes   R2=No   R3=No
   Joint=5   U1=No   U2=No   U3=Yes   R1=Yes   R2=Yes   R3=No
   Joint=6   U1=No   U2=No   U3=Yes   R1=No   R2=Yes   R3=No
   Joint=10   U1=No   U2=No   U3=Yes   R1=No   R2=Yes   R3=No
   Joint=11   U1=No   U2=No   U3=Yes   R1=No   R2=Yes   R3=No
   Joint=15   U1=No   U2=No   U3=Yes   R1=No   R2=Yes   R3=No
   Joint=16   U1=No   U2=No   U3=Yes   R1=No   R2=Yes   R3=No
   Joint=20   U1=No   U2=No   U3=Yes   R1=No   R2=Yes   R3=No
   Joint=21   U1=No   U2=No   U3=Yes   R1=No   R2=Yes   R3=No
   Joint=25   U1=No   U2=No   U3=Yes   R1=No   R2=Yes   R3=No
   Joint=26   U1=No   U2=No   U3=Yes   R1=No   R2=Yes   R3=No
   Joint=30   U1=No   U2=No   U3=Yes   R1=No   R2=Yes   R3=No
   Joint=31   U1=No   U2=No   U3=Yes   R1=Yes   R2=Yes   R3=No
   Joint=32   U1=No   U2=No   U3=Yes   R1=Yes   R2=No   R3=No
   Joint=33   U1=No   U2=No   U3=Yes   R1=Yes   R2=No   R3=No
   Joint=34   U1=No   U2=No   U3=Yes   R1=Yes   R2=No   R3=No
   Joint=35   U1=No   U2=No   U3=Yes   R1=Yes   R2=Yes   R3=No
 
TABLE:  "LOAD CASE DEFINITIONS"
   Case=DEAD   Type=LinStatic   InitialCond=Zero   DesTypeOpt="Prog Det"   DesignType=Dead   DesActOpt="Prog Det"   DesignAct=Non-Composite   AutoType=None   RunCase=Yes   GUID=8e137da2-decc-4536-927e-4a02b5d1ad4c
   Case=MODAL   Type=LinModal   InitialCond=Zero   DesTypeOpt="Prog Det"   DesignType=Other   DesActOpt="Prog Det"   DesignAct=Other   AutoType=None   RunCase=Yes   GUID=3ff8cc0a-dfd3-4dd0-a3f6-2cdb7d099914
   Case=LOAD1   Type=LinStatic   InitialCond=Zero   DesTypeOpt="Prog Det"   DesignType=Dead   DesActOpt="Prog Det"   DesignAct=Non-Composite   AutoType=None   RunCase=Yes   GUID=52972367-e5b1-4fa5-b561-6271b9d984bb
 
TABLE:  "LOAD PATTERN DEFINITIONS"
   LoadPat=DEAD   DesignType=Dead   SelfWtMult=1   GUID=2e402ac5-af9a-41e3-8425-beb09c01d81e
   LoadPat=LOAD1   DesignType=Dead   SelfWtMult=1   GUID=304cf26d-6e71-4f02-83fd-f36e143b911a
 
TABLE:  "MASS SOURCE"
   MassSource=MSSSRC1   Elements=Yes   Masses=Yes   Loads=No   IsDefault=Yes
 
TABLE:  "MATERIAL PROPERTIES 01 - GENERAL"
   Material=4000Psi   Type=Concrete   Grade="f'c 4000 psi"   SymType=Isotropic   TempDepend=No   Color=Red   GUID=28e3f0bf-991f-42ca-9f08-2f3a0d59765a   Notes="Customary f'c 4000 psi 1/18/2026 2:23:25 AM"
   Material=A992Fy50   Type=Steel   Grade="Grade 50"   SymType=Isotropic   TempDepend=No   Color=Cyan   Notes="ASTM A992 Grade 50 1/18/2026 2:23:25 AM"
   Material=CONC   Type=Concrete   SymType=Isotropic   TempDepend=No   Color=Magenta
 
TABLE:  "MATERIAL PROPERTIES 02 - BASIC MECHANICAL PROPERTIES"
   Material=4000Psi   UnitWeight=23.5631216161854   UnitMass=2.40276960558926   E1=24855578.0600518   G12=10356490.8583549   U12=0.2   A1=9.89999952793124E-06
   Material=A992Fy50   UnitWeight=76.9728639422648   UnitMass=7.84904737995992   E1=199947978.795958   G12=76903068.767676   U12=0.3   A1=1.16999994421006E-05
   Material=CONC   UnitWeight=23.563121614979   UnitMass=2.40276960611018   E1=35000000   G12=15217391.3043478   U12=0.15   A1=9.9E-06
 
TABLE:  "MATERIAL PROPERTIES 03A - STEEL DATA"
   Material=A992Fy50   Fy=344737.894475789   Fu=448159.262818526   EffFy=379211.683923368   EffFu=492975.189100378   SSCurveOpt=Simple   SSHysType=Kinematic   SHard=0.015   SMax=0.11   SRup=0.17   FinalSlope=-0.1   CoupModType="Von Mises"
 
TABLE:  "MATERIAL PROPERTIES 03B - CONCRETE DATA"
   Material=4000Psi   Fc=27579.0315580631   eFc=27579.0315580631   LtWtConc=No   SSCurveOpt=Mander   SSHysType=Takeda   SFc=0.00221914   SCap=0.005   FinalSlope=-0.1   FAngle=0   DAngle=0   CoupModType="Modified Darwin-Pecknold"
   Material=CONC   Fc=27579.0315580631   eFc=27579.0315580631   LtWtConc=No   SSCurveOpt=Mander   SSHysType=Takeda   SFc=0.00221914221766202   SCap=0.005   FinalSlope=-0.1   FAngle=0   DAngle=0   CoupModType="Modified Darwin-Pecknold"
 
TABLE:  "MATERIAL PROPERTIES 03J - COUPLED NONLINEAR VON MISES DATA"
   Material=A992Fy50   YieldStress=379211.683923368   LinIsoHard=No   LinKinHard=No   NLIsoSaHard=No
 
TABLE:  "MATERIAL PROPERTIES 06 - DAMPING PARAMETERS"
   Material=4000Psi   ModalRatio=0   VisMass=0   VisStiff=0   HysMass=0   HysStiff=0
   Material=A992Fy50   ModalRatio=0   VisMass=0   VisStiff=0   HysMass=0   HysStiff=0
   Material=CONC   ModalRatio=0   VisMass=0   VisStiff=0   HysMass=0   HysStiff=0
 
TABLE:  "MATERIAL PROPERTIES 09 - ACCEPTANCE CRITERIA"
   Material=4000Psi   IOTens=0.01   LSTens=0.02   CPTens=0.05   IOComp=-0.003   LSComp=-0.006   CPComp=-0.015   IgnoreTens=Yes
   Material=A992Fy50   IOTens=0.01   LSTens=0.02   CPTens=0.05   IOComp=-0.005   LSComp=-0.01   CPComp=-0.02
   Material=CONC   IOTens=0.01   LSTens=0.02   CPTens=0.05   IOComp=-0.003   LSComp=-0.006   CPComp=-0.015   IgnoreTens=Yes
 
TABLE:  "OPTIONS - COLORS - DISPLAY"
   DeviceType=Screen   Points=Blue   LinesFrame=Blue   LinesFrmDL=Blue   LinesCable=Green   LinesTendon=Green   SpringLinks=Green   Restraints=Green   Releases=Green   Axes=Cyan   Text=Black   ShadowLines=Gray8Dark   GuideLines=Gray8Dark _
        Highlight=Red   Selection=10504778   AreaFillBot=Red   AreaFillTop=16744703   AreaFillSd=Red   AreaEdge=DarkRed   SolidF1=Red   SolidF2=Blue   SolidF3=Green   SolidF4=Yellow   SolidF5=White   SolidF6=Cyan   SolidEdge=DarkRed _
        Floor=Gray4   Background=White   BGLowLeft=White   BGLowRight=White   BGUpRight=White   Darkness=0.5
   DeviceType=Printer   Points=Gray8Dark   LinesFrame=Black   LinesFrmDL=Gray4   LinesCable=Black   LinesTendon=Black   SpringLinks=Gray8Dark   Restraints=Gray8Dark   Releases=Gray4   Axes=Black   Text=Black   ShadowLines=Gray4 _
        GuideLines=Gray4   Highlight=Black   Selection=Black   AreaFillBot=Gray4   AreaFillTop=Gray8Dark   AreaFillSd=Gray4   AreaEdge=Black   SolidF1=Gray1Light   SolidF2=Gray2   SolidF3=Gray3   SolidF4=Gray4   SolidF5=Gray5 _
        SolidF6=Gray6   SolidEdge=Black   Floor=Gray4   Background=White   BGLowLeft=White   BGLowRight=White   BGUpRight=White   Darkness=0.5
   DeviceType="Color Printer"   Points=Blue   LinesFrame=Blue   LinesFrmDL=Blue   LinesCable=Green   LinesTendon=Green   SpringLinks=Green   Restraints=Green   Releases=Green   Axes=Cyan   Text=Black   ShadowLines=Gray8Dark _
        GuideLines=Gray8Dark   Highlight=Red   Selection=10504778   AreaFillBot=Red   AreaFillTop=16744703   AreaFillSd=Red   AreaEdge=DarkRed   SolidF1=Red   SolidF2=Blue   SolidF3=Green   SolidF4=Yellow   SolidF5=White   SolidF6=Cyan _
        SolidEdge=DarkRed   Floor=Gray4   Background=White   BGLowLeft=White   BGLowRight=White   BGUpRight=White   Darkness=0.5
 
TABLE:  "OPTIONS - COLORS - OUTPUT"
   DeviceType=Screen   Contour1=13107400   Contour2=6553828   Contour3=Red   Contour4=16639   Contour5=Orange   Contour6=43775   Contour7=54527   Contour8=Yellow   Contour9=65408   Contour10=Green   Contour11=8453888   Contour12=Cyan _
        Contour13=16755200   Contour14=16733440   Contour15=Blue   Transpare=0   Ratio1=Cyan   Ratio2=Green   Ratio3=Yellow   Ratio4=Orange   Ratio5=Red   RatioNotD=Gray4   RatioNotC=Red   RatioVal1=0.5   RatioVal2=0.7   RatioVal3=0.9 _
        RatioVal4=1   DFillPos=Blue   DFillNeg=Red   DFillRPos=Green   DFillRNeg=Green
   DeviceType=Printer   Contour1=Black   Contour2=3158064   Contour3=4210752   Contour4=5263440   Contour5=6316128   Contour6=7368816   Contour7=Gray8Dark   Contour8=Gray7   Contour9=Gray6   Contour10=Gray5   Contour11=Gray4 _
        Contour12=Gray3   Contour13=Gray2   Contour14=Gray1Light   Contour15=White   Transpare=0   Ratio1=Gray2   Ratio2=Gray4   Ratio3=Gray8Dark   Ratio4=4210752   Ratio5=Black   RatioNotD=Gray4   RatioNotC=Black   RatioVal1=0.5 _
        RatioVal2=0.7   RatioVal3=0.9   RatioVal4=1   DFillPos=Gray8Dark   DFillNeg=Gray8Dark   DFillRPos=4210752   DFillRNeg=4210752
   DeviceType="Color Printer"   Contour1=13107400   Contour2=6553828   Contour3=Red   Contour4=16639   Contour5=Orange   Contour6=43775   Contour7=54527   Contour8=Yellow   Contour9=65408   Contour10=Green   Contour11=8453888 _
        Contour12=Cyan   Contour13=16755200   Contour14=16733440   Contour15=Blue   Transpare=0   Ratio1=Cyan   Ratio2=Green   Ratio3=Yellow   Ratio4=Orange   Ratio5=Red   RatioNotD=Gray4   RatioNotC=Red   RatioVal1=0.5   RatioVal2=0.7 _
        RatioVal3=0.9   RatioVal4=1   DFillPos=Blue   DFillNeg=Red   DFillRPos=Green   DFillRNeg=Green
 
TABLE:  "PREFERENCES - ALUMINUM DESIGN - AA 2015"
   THDesign=Envelopes   SRatioLimit=1   Provision=LRFD   LatFact=1.33333333333333   UseLatFact=No   Bridge=No   PhiTy=0.9   PhiTr=0.75   PhiC=0.9   PhiBo=0.9   PhiBr=0.75   PhiVo=0.9   PhiVr=0.75
 
TABLE:  "PREFERENCES - COLD FORMED DESIGN - AISI-16"
   THDesign=Envelopes   FrameType="Braced Frame"   SRatioLimit=1   SOMethod="General 2nd Order"   Provision=LRFD   LatFact=1.33333333333333   UseLatFact=No   PhiTy=0.9   PhiTr=0.75   PhiC=0.85   PhiB=0.9   PhiBPipe=0.95   PhiV=0.95
 
TABLE:  "PREFERENCES - CONCRETE DESIGN - ACI 318-19"
   THDesign=Envelopes   NumCurves=24   NumPoints=11   MinEccen=Yes   BCCDesign=Yes   IgnoreBPu=Yes   CTorsion=Yes   PatLLF=0.75   UFLimit=0.95   SeisCat=D   Rho=1   Sds=0.5   PhiT=0.9   PhiCTied=0.65   PhiCSpiral=0.75   PhiV=0.75 _
        PhiVSeismic=0.6   PhiVJoint=0.85   TanTheta=1
 
TABLE:  "PREFERENCES - CONCRETE SHELL DESIGN - EUROCODE 2-2004"
   Country="CEN Default"   GammaS=1.15   GammaC=1.5   AlphaCC=1   AlphaCT=1   CrackCond="Program Determined"   ShrDesMet="Method 1"   CotTheta=1
 
TABLE:  "PREFERENCES - DIMENSIONAL"
   MergeTol=0.001   FineGrid=0.25   Nudge=0.25   SelectTol=3   SnapTol=12   SLineThick=1   PLineThick=4   MaxFont=8   MinFont=3   AutoZoom=10   ShrinkFact=70   TextFileLen=240
 
TABLE:  "PREFERENCES - STEEL DESIGN - AISC 360-16"
   THDesign=Envelopes   FrameType=SMF   PatLLF=0.75   SRatioLimit=0.95   MaxIter=1   SDC=D   SeisCode=No   SeisLoad=No   ImpFactor=1   SystemRho=1   SystemSds=0.5   SystemR=8   SystemCd=5.5   Omega0=3   Provision=LRFD _
        AMethod="Direct Analysis"   SOMethod="General 2nd Order"   SRMethod="Tau-b Fixed"   NLCoeff=0.002   PhiB=0.9   PhiC=0.9   PhiTY=0.9   PhiTF=0.75   PhiV=0.9   PhiVRolledI=1   PhiVT=0.9   PlugWeld=Yes   HSSWelding=ERW   HSSReduceT=No _
        CheckDefl=No   DLRat=120   SDLAndLLRat=120   LLRat=360   TotalRat=240   NetRat=240
 
TABLE:  "PROGRAM CONTROL"
   ProgramName=SAP2000   Version=24.1.0   CurrUnits="KN, m, C"   SteelCode="AISC 360-16"   ConcCode="ACI 318-19"   AlumCode="AA 2015"   ColdCode=AISI-16   RegenHinge=Yes
 
TABLE:  "PROJECT INFORMATION"
   Item="Company Name"
   Item="Client Name"
   Item="Project Name"
   Item="Project Number"
   Item="Model Name"
   Item="Model Description"
   Item="Revision Number"
   Item="Frame Type"
   Item=Engineer
   Item=Checker
   Item=Supervisor
   Item="Issue Code"
   Item="Design Code"
 
TABLE:  "REBAR SIZES"
   RebarID=#2   Area=3.2258E-05   Diameter=0.00635
   RebarID=#3   Area=7.09675996154547E-05   Diameter=0.009525
   RebarID=#4   Area=0.000129032001922727   Diameter=0.0127
   RebarID=#5   Area=0.000199999601538181   Diameter=0.015875
   RebarID=#6   Area=0.000283870398461819   Diameter=0.01905
   RebarID=#7   Area=0.000387096015381813   Diameter=0.022225
   RebarID=#8   Area=0.000509676413843632   Diameter=0.0254
   RebarID=#9   Area=0.00064516   Diameter=0.0286512005329132
   RebarID=#10   Area=0.00081935318769455   Diameter=0.0322579995155334
   RebarID=#11   Area=0.00100644956308365   Diameter=0.0358139991521835
   RebarID=#14   Area=0.00145161   Diameter=0.0430021989583969
   RebarID=#18   Area=0.00258064   Diameter=0.0573277992248535
   RebarID=10M   Area=0.000100000002655387   Diameter=0.011300000667572
   RebarID=15M   Area=0.000200000005310774   Diameter=0.0159999999403954
   RebarID=20M   Area=0.000300000017579794   Diameter=0.0194999997854233
   RebarID=25M   Area=0.000500000022890568   Diameter=0.0252000016093254
   RebarID=30M   Area=0.000700000008974075   Diameter=0.0299000008821487
   RebarID=35M   Area=0.00100000004578114   Diameter=0.0357000011444092
   RebarID=45M   Area=0.00150000010712624   Diameter=0.0437000003576279
   RebarID=55M   Area=0.00250000007599831   Diameter=0.0564000033855438
   RebarID=6d   Area=2.83000004149973E-05   Diameter=0.006000000166893
   RebarID=8d   Area=5.02999995571375E-05   Diameter=0.00799999997019768
   RebarID=10d   Area=7.85000013634562E-05   Diameter=0.00999999977350235
   RebarID=12d   Area=0.000113000009249449   Diameter=0.012000000333786
   RebarID=14d   Area=0.000154000010818839   Diameter=0.0140000008940697
   RebarID=16d   Area=0.000201000015431643   Diameter=0.0159999999403954
   RebarID=20d   Area=0.000314000005453825   Diameter=0.0199999995470047
   RebarID=25d   Area=0.000491000008711815   Diameter=0.0250000001907349
   RebarID=26d   Area=0.000531000029001236   Diameter=0.0259999997138977
   RebarID=28d   Area=0.000616000043275356   Diameter=0.0280000017881393
   RebarID=N12   Area=0.000113000009249449   Diameter=0.012000000333786
   RebarID=N16   Area=0.000201000015431643   Diameter=0.0159999999403954
   RebarID=N20   Area=0.000314000005453825   Diameter=0.0199999995470047
   RebarID=N24   Area=0.000452000036997795   Diameter=0.024000000667572
   RebarID=N28   Area=0.000616000043275356   Diameter=0.0280000017881393
   RebarID=N32   Area=0.00080400006172657   Diameter=0.0319999998807907
   RebarID=N36   Area=0.00102000001747131   Diameter=0.036000001001358
 
END TABLE DATA
