File C:\Users\j-b-j\Documents\Calcpad-7.5.7\SAP2000_Losa_v6.$2k was saved on m/d/yy at h:mm:ss
 
TABLE:  "ACTIVE DEGREES OF FREEDOM"
   UX=Yes   UY=Yes   UZ=Yes   RX=Yes   RY=Yes   RZ=Yes
 
TABLE:  "ANALYSIS OPTIONS"
   Solver=Advanced   SolverProc=Auto   Force32Bit=No   StiffCase=None   GeomMod=None   HingeOpt="In Elements"   NumAThreads=0   MaxFileSize=0   NumDThreads=0   NumRThreads=0   UseMMFiles="Program Determined"   AllowDiff=No
 
TABLE:  "AREA LOADS - UNIFORM"
   Area=E1   LoadPat=DEAD   CoordSys=GLOBAL   Dir=Z   UnifLoad=0.00145037725185479
   Area=E2   LoadPat=DEAD   CoordSys=GLOBAL   Dir=Z   UnifLoad=0.00145037725185479
   Area=E3   LoadPat=DEAD   CoordSys=GLOBAL   Dir=Z   UnifLoad=0.00145037725185479
   Area=E4   LoadPat=DEAD   CoordSys=GLOBAL   Dir=Z   UnifLoad=0.00145037725185479
   Area=E5   LoadPat=DEAD   CoordSys=GLOBAL   Dir=Z   UnifLoad=0.00145037725185479
   Area=E6   LoadPat=DEAD   CoordSys=GLOBAL   Dir=Z   UnifLoad=0.00145037725185479
   Area=E7   LoadPat=DEAD   CoordSys=GLOBAL   Dir=Z   UnifLoad=0.00145037725185479
   Area=E8   LoadPat=DEAD   CoordSys=GLOBAL   Dir=Z   UnifLoad=0.00145037725185479
   Area=E9   LoadPat=DEAD   CoordSys=GLOBAL   Dir=Z   UnifLoad=0.00145037725185479
   Area=E10   LoadPat=DEAD   CoordSys=GLOBAL   Dir=Z   UnifLoad=0.00145037725185479
   Area=E11   LoadPat=DEAD   CoordSys=GLOBAL   Dir=Z   UnifLoad=0.00145037725185479
   Area=E12   LoadPat=DEAD   CoordSys=GLOBAL   Dir=Z   UnifLoad=0.00145037725185479
   Area=E13   LoadPat=DEAD   CoordSys=GLOBAL   Dir=Z   UnifLoad=0.00145037725185479
   Area=E14   LoadPat=DEAD   CoordSys=GLOBAL   Dir=Z   UnifLoad=0.00145037725185479
   Area=E15   LoadPat=DEAD   CoordSys=GLOBAL   Dir=Z   UnifLoad=0.00145037725185479
   Area=E16   LoadPat=DEAD   CoordSys=GLOBAL   Dir=Z   UnifLoad=0.00145037725185479
   Area=E17   LoadPat=DEAD   CoordSys=GLOBAL   Dir=Z   UnifLoad=0.00145037725185479
   Area=E18   LoadPat=DEAD   CoordSys=GLOBAL   Dir=Z   UnifLoad=0.00145037725185479
   Area=E19   LoadPat=DEAD   CoordSys=GLOBAL   Dir=Z   UnifLoad=0.00145037725185479
   Area=E20   LoadPat=DEAD   CoordSys=GLOBAL   Dir=Z   UnifLoad=0.00145037725185479
# ... 4 like lines cut
 
TABLE:  "AREA SECTION ASSIGNMENTS"
   Area=E1   Section=LOSA   MatProp=Default
   Area=E2   Section=LOSA   MatProp=Default
   Area=E3   Section=LOSA   MatProp=Default
   Area=E4   Section=LOSA   MatProp=Default
   Area=E5   Section=LOSA   MatProp=Default
   Area=E6   Section=LOSA   MatProp=Default
   Area=E7   Section=LOSA   MatProp=Default
   Area=E8   Section=LOSA   MatProp=Default
   Area=E9   Section=LOSA   MatProp=Default
   Area=E10   Section=LOSA   MatProp=Default
   Area=E11   Section=LOSA   MatProp=Default
   Area=E12   Section=LOSA   MatProp=Default
   Area=E13   Section=LOSA   MatProp=Default
   Area=E14   Section=LOSA   MatProp=Default
   Area=E15   Section=LOSA   MatProp=Default
   Area=E16   Section=LOSA   MatProp=Default
   Area=E17   Section=LOSA   MatProp=Default
   Area=E18   Section=LOSA   MatProp=Default
   Area=E19   Section=LOSA   MatProp=Default
   Area=E20   Section=LOSA   MatProp=Default
# ... 4 like lines cut
 
TABLE:  "AREA SECTION PROPERTIES"
   Section=LOSA   Material=CONC   MatAngle=0   AreaType=Shell   Type=Shell-Thin   DrillDOF=No   Thickness=3.93700787401575   BendThick=3.93700787401575   Color=Black   F11Mod=1   F22Mod=1   F12Mod=1   M11Mod=1   M22Mod=1   M12Mod=1 _
        V13Mod=1   V23Mod=1   MMod=1   WMod=1
 
TABLE:  "AREA SECTION PROPERTY DESIGN PARAMETERS"
   Section=LOSA   RebarMat=None   RebarOpt=Default
 
TABLE:  "AREA SECTION PROPERTY - TIME DEPENDENT"
   Section=LOSA   TypeSize=Auto   AutoSFSize=1
 
TABLE:  "AUTO WAVE 3 - WAVE CHARACTERISTICS - GENERAL"
   WaveChar=Default   WaveType="From Theory"   KinFactor=1   SWaterDepth=1800   WaveHeight=720   WavePeriod=12   WaveTheory=Linear
 
TABLE:  "CASE - MODAL 1 - GENERAL"
   Case=MODAL   ModeType=Eigen   MaxNumModes=12   MinNumModes=1   EigenShift=0   EigenCutoff=0   EigenTol=1E-09   AutoShift=Yes
 
TABLE:  "CASE - STATIC 1 - LOAD ASSIGNMENTS"
   Case=DEAD   LoadType="Load pattern"   LoadName=DEAD   LoadSF=1
 
TABLE:  "CONNECTIVITY - AREA"
   Area=E1   Joint1=1   Joint2=6   Joint3=7   Joint4=2   GUID=25a9f0e4-e944-4d83-8b88-a9d544bddc6d
   Area=E2   Joint1=2   Joint2=7   Joint3=8   Joint4=3   GUID=39270b58-7ece-4af3-9063-f29082664f5d
   Area=E3   Joint1=3   Joint2=8   Joint3=9   Joint4=4   GUID=8b296fd5-7ca6-4251-ade1-ee9142d1f91e
   Area=E4   Joint1=4   Joint2=9   Joint3=10   Joint4=5   GUID=316e9588-3239-4de8-9b96-7993e417b1ab
   Area=E5   Joint1=6   Joint2=11   Joint3=12   Joint4=7   GUID=f440c0f9-8de7-4ca8-98c1-c820c0bf66b8
   Area=E6   Joint1=7   Joint2=12   Joint3=13   Joint4=8   GUID=6d62a6c2-5097-448c-be0b-6c86f2fd5d0b
   Area=E7   Joint1=8   Joint2=13   Joint3=14   Joint4=9   GUID=089bd30b-67de-42bb-a034-ab9820d7ddeb
   Area=E8   Joint1=9   Joint2=14   Joint3=15   Joint4=10   GUID=d8399da7-930e-4fbc-b9da-a9f981ad7f59
   Area=E9   Joint1=11   Joint2=16   Joint3=17   Joint4=12   GUID=bd5139ac-7a61-497c-a9c5-b199bf7ba169
   Area=E10   Joint1=12   Joint2=17   Joint3=18   Joint4=13   GUID=6d13ef71-a00b-48d4-82ff-c6af5b9deedb
   Area=E11   Joint1=13   Joint2=18   Joint3=19   Joint4=14   GUID=616d123f-4aab-4bc8-8178-7565870d716e
   Area=E12   Joint1=14   Joint2=19   Joint3=20   Joint4=15   GUID=d5a286d9-c27f-49ca-9be3-57ed53defdeb
   Area=E13   Joint1=16   Joint2=21   Joint3=22   Joint4=17   GUID=0a822c04-4565-40d6-a871-1127dd30a0dc
   Area=E14   Joint1=17   Joint2=22   Joint3=23   Joint4=18   GUID=028e2e98-d13f-4f46-aadb-404470160359
   Area=E15   Joint1=18   Joint2=23   Joint3=24   Joint4=19   GUID=b6722d47-de9a-43f7-95d4-b0a46ffc47e9
   Area=E16   Joint1=19   Joint2=24   Joint3=25   Joint4=20   GUID=be599a52-d6ce-4aa7-b35f-ff8880a93b0e
   Area=E17   Joint1=21   Joint2=26   Joint3=27   Joint4=22   GUID=f92f2106-43f2-4c06-9195-f6181106c595
   Area=E18   Joint1=22   Joint2=27   Joint3=28   Joint4=23   GUID=acf86eb9-cb34-4efb-bf52-2454f54fb061
   Area=E19   Joint1=23   Joint2=28   Joint3=29   Joint4=24   GUID=4574d795-1c80-424b-80e3-a91464ddc063
   Area=E20   Joint1=24   Joint2=29   Joint3=30   Joint4=25   GUID=48118d02-050d-4fb8-b1b1-9fa22e206415
   Area=E21   Joint1=26   Joint2=31   Joint3=32   Joint4=27   GUID=ae75ba29-2fc8-46db-905e-e9a65bb4557b
   Area=E22   Joint1=27   Joint2=32   Joint3=33   Joint4=28   GUID=9f33d6f8-62ae-4ca8-827c-25c1370a429b
   Area=E23   Joint1=28   Joint2=33   Joint3=34   Joint4=29   GUID=da71f0ff-2749-420e-a709-9df0ce6a8d86
   Area=E24   Joint1=29   Joint2=34   Joint3=35   Joint4=30   GUID=ad98ad01-58d6-4ca1-bf46-21bc5b2cad2f
 
TABLE:  "COORDINATE SYSTEMS"
   Name=GLOBAL   Type=Cartesian   X=0   Y=0   Z=0   AboutZ=0   AboutY=0   AboutX=0
 
TABLE:  "DATABASE DOCUMENTATION"
 
TABLE:  "DATABASE FORMAT TYPES"
   UnitsCurr=Yes   OverrideE=No
 
TABLE:  "FUNCTION - PLOT FUNCTIONS"
   PlotFunc="Input Energy"   Type=Energy   Component=Input   Mode=All
 
TABLE:  "FUNCTION - POWER SPECTRAL DENSITY - USER"
   Name=UNIFPSD   Frequency=0   Value=1
   Name=UNIFPSD   Frequency=1   Value=1
 
TABLE:  "FUNCTION - RESPONSE SPECTRUM - USER"
   Name=UNIFRS   Period=0   Accel=1   FuncDamp=0.05
   Name=UNIFRS   Period=1   Accel=1
 
TABLE:  "FUNCTION - STEADY STATE - USER"
   Name=UNIFSS   Frequency=0   Value=1
   Name=UNIFSS   Frequency=1   Value=1
 
TABLE:  "FUNCTION - TIME HISTORY - USER"
   Name=RAMPTH   Time=0   Value=0
   Name=RAMPTH   Time=1   Value=1
   Name=RAMPTH   Time=4   Value=1
   Name=UNIFTH   Time=0   Value=1
   Name=UNIFTH   Time=1   Value=1
 
TABLE:  "GROUPS 1 - DEFINITIONS"
   GroupName=ALL   Selection=Yes   SectionCut=Yes   Steel=Yes   Concrete=Yes   Aluminum=Yes   ColdFormed=Yes   Stage=Yes   Bridge=Yes   AutoSeismic=No   AutoWind=No   SelDesSteel=No   SelDesAlum=No   SelDesCold=No   MassWeight=Yes   Color=Red
 
TABLE:  "JOINT COORDINATES"
   Joint=1   CoordSys=GLOBAL   CoordType=Cartesian   XorR=0   Y=0   Z=0   SpecialJt=Yes   GUID=8a965e60-2651-47a6-9151-07fa9b5de94a
   Joint=2   CoordSys=GLOBAL   CoordType=Cartesian   XorR=0   Y=39.3700787401575   Z=0   SpecialJt=Yes   GUID=5c3a8662-31ad-4a4f-85c4-2e6fc742b20e
   Joint=3   CoordSys=GLOBAL   CoordType=Cartesian   XorR=0   Y=78.740157480315   Z=0   SpecialJt=Yes   GUID=7dce8f93-703c-4f91-a5ce-b290412f9127
   Joint=4   CoordSys=GLOBAL   CoordType=Cartesian   XorR=0   Y=118.110236220472   Z=0   SpecialJt=Yes   GUID=e4b60a80-ad6e-485f-ad6f-78e93840371a
   Joint=5   CoordSys=GLOBAL   CoordType=Cartesian   XorR=0   Y=157.48031496063   Z=0   SpecialJt=Yes   GUID=ef3ff3f2-f3d4-43f4-b4fc-5ce60e065ee3
   Joint=6   CoordSys=GLOBAL   CoordType=Cartesian   XorR=39.3700787401575   Y=0   Z=0   SpecialJt=Yes   GUID=eb476a18-9075-473c-b6d4-b482203ec02d
   Joint=7   CoordSys=GLOBAL   CoordType=Cartesian   XorR=39.3700787401575   Y=39.3700787401575   Z=0   SpecialJt=Yes   GUID=cc886b50-3709-424d-8c20-143861bd36bc
   Joint=8   CoordSys=GLOBAL   CoordType=Cartesian   XorR=39.3700787401575   Y=78.740157480315   Z=0   SpecialJt=Yes   GUID=0f32fa36-018a-4c7a-a263-e97618ab844e
   Joint=9   CoordSys=GLOBAL   CoordType=Cartesian   XorR=39.3700787401575   Y=118.110236220472   Z=0   SpecialJt=Yes   GUID=d233389e-5f60-45cd-92ab-b5376242df5a
   Joint=10   CoordSys=GLOBAL   CoordType=Cartesian   XorR=39.3700787401575   Y=157.48031496063   Z=0   SpecialJt=Yes   GUID=da60938d-3cdd-4220-8271-5aae8d4b5a0e
   Joint=11   CoordSys=GLOBAL   CoordType=Cartesian   XorR=78.740157480315   Y=0   Z=0   SpecialJt=Yes   GUID=7bd2a061-7a29-40da-b574-ac982a101aef
   Joint=12   CoordSys=GLOBAL   CoordType=Cartesian   XorR=78.740157480315   Y=39.3700787401575   Z=0   SpecialJt=Yes   GUID=73922e3a-9b4e-4b32-bbdb-79a0295120dc
   Joint=13   CoordSys=GLOBAL   CoordType=Cartesian   XorR=78.740157480315   Y=78.740157480315   Z=0   SpecialJt=Yes   GUID=5ffc89e9-56a0-45cc-bc2e-b6e0b5aa02c5
   Joint=14   CoordSys=GLOBAL   CoordType=Cartesian   XorR=78.740157480315   Y=118.110236220472   Z=0   SpecialJt=Yes   GUID=ef9a5afc-cce6-4314-85b4-1afff05314b8
   Joint=15   CoordSys=GLOBAL   CoordType=Cartesian   XorR=78.740157480315   Y=157.48031496063   Z=0   SpecialJt=Yes   GUID=9b104c0f-de86-4d70-a029-038f74800757
   Joint=16   CoordSys=GLOBAL   CoordType=Cartesian   XorR=118.110236220472   Y=0   Z=0   SpecialJt=Yes   GUID=620721c9-66fc-45b9-ad1d-0f6eb11ccba5
   Joint=17   CoordSys=GLOBAL   CoordType=Cartesian   XorR=118.110236220472   Y=39.3700787401575   Z=0   SpecialJt=Yes   GUID=2d412c3e-7485-4777-a947-436fad885a5c
   Joint=18   CoordSys=GLOBAL   CoordType=Cartesian   XorR=118.110236220472   Y=78.740157480315   Z=0   SpecialJt=Yes   GUID=8953779b-7eed-46eb-b783-47b594388b1d
   Joint=19   CoordSys=GLOBAL   CoordType=Cartesian   XorR=118.110236220472   Y=118.110236220472   Z=0   SpecialJt=Yes   GUID=d6571ef7-ceca-4cfc-a7e8-d086b2732c68
   Joint=20   CoordSys=GLOBAL   CoordType=Cartesian   XorR=118.110236220472   Y=157.48031496063   Z=0   SpecialJt=Yes   GUID=1eececbf-cf68-40ad-ac24-e103bb2a26b2
   Joint=21   CoordSys=GLOBAL   CoordType=Cartesian   XorR=157.48031496063   Y=0   Z=0   SpecialJt=Yes   GUID=f1bad29f-195d-41f8-8eff-d750a05cbcb9
   Joint=22   CoordSys=GLOBAL   CoordType=Cartesian   XorR=157.48031496063   Y=39.3700787401575   Z=0   SpecialJt=Yes   GUID=2959dd9d-7780-4468-b308-4d27104e37eb
   Joint=23   CoordSys=GLOBAL   CoordType=Cartesian   XorR=157.48031496063   Y=78.740157480315   Z=0   SpecialJt=Yes   GUID=0443e0a5-966e-4ea1-87ea-cc7259ae697d
   Joint=24   CoordSys=GLOBAL   CoordType=Cartesian   XorR=157.48031496063   Y=118.110236220472   Z=0   SpecialJt=Yes   GUID=0ee8eb36-983a-4f80-af8a-53213f4e2f2f
   Joint=25   CoordSys=GLOBAL   CoordType=Cartesian   XorR=157.48031496063   Y=157.48031496063   Z=0   SpecialJt=Yes   GUID=35cba8a2-d624-4ab0-95d4-f3d9fd8c1213
   Joint=26   CoordSys=GLOBAL   CoordType=Cartesian   XorR=196.850393700787   Y=0   Z=0   SpecialJt=Yes   GUID=c309a1a6-6684-4b22-8f8c-f634a59647aa
   Joint=27   CoordSys=GLOBAL   CoordType=Cartesian   XorR=196.850393700787   Y=39.3700787401575   Z=0   SpecialJt=Yes   GUID=8df6b372-197c-4ba9-809c-8d9c60b89290
   Joint=28   CoordSys=GLOBAL   CoordType=Cartesian   XorR=196.850393700787   Y=78.740157480315   Z=0   SpecialJt=Yes   GUID=bf601ccf-5c78-4f9b-a12d-e0f66edadc39
   Joint=29   CoordSys=GLOBAL   CoordType=Cartesian   XorR=196.850393700787   Y=118.110236220472   Z=0   SpecialJt=Yes   GUID=85406e13-dd5d-433f-8dc3-5d07eb7a2a8d
   Joint=30   CoordSys=GLOBAL   CoordType=Cartesian   XorR=196.850393700787   Y=157.48031496063   Z=0   SpecialJt=Yes   GUID=9ec8fca5-cb0c-468b-ae40-0f5e6b4f36e7
   Joint=31   CoordSys=GLOBAL   CoordType=Cartesian   XorR=236.220472440945   Y=0   Z=0   SpecialJt=Yes   GUID=97343dac-92c2-4b72-9fdd-1c0390eaa801
   Joint=32   CoordSys=GLOBAL   CoordType=Cartesian   XorR=236.220472440945   Y=39.3700787401575   Z=0   SpecialJt=Yes   GUID=1f2ba28b-37f0-430a-956d-15b4555aa4d8
   Joint=33   CoordSys=GLOBAL   CoordType=Cartesian   XorR=236.220472440945   Y=78.740157480315   Z=0   SpecialJt=Yes   GUID=9cd4a8d4-9716-4f86-9acd-9ff8fd2990f6
   Joint=34   CoordSys=GLOBAL   CoordType=Cartesian   XorR=236.220472440945   Y=118.110236220472   Z=0   SpecialJt=Yes   GUID=3d15b2a9-70eb-4586-bd63-54c0a5c91db7
   Joint=35   CoordSys=GLOBAL   CoordType=Cartesian   XorR=236.220472440945   Y=157.48031496063   Z=0   SpecialJt=Yes   GUID=c0f059cb-2a05-404a-8c00-c4a03d2745e5
 
TABLE:  "JOINT PATTERN DEFINITIONS"
   Pattern=Default
 
TABLE:  "JOINT RESTRAINT ASSIGNMENTS"
   Joint=1   U1=Yes   U2=Yes   U3=Yes   R1=No   R2=No   R3=No
   Joint=2   U1=Yes   U2=Yes   U3=Yes   R1=No   R2=No   R3=No
   Joint=3   U1=Yes   U2=Yes   U3=Yes   R1=No   R2=No   R3=No
   Joint=4   U1=Yes   U2=Yes   U3=Yes   R1=No   R2=No   R3=No
   Joint=5   U1=Yes   U2=Yes   U3=Yes   R1=No   R2=No   R3=No
   Joint=6   U1=Yes   U2=Yes   U3=Yes   R1=No   R2=No   R3=No
   Joint=7   U1=Yes   U2=Yes   U3=No   R1=No   R2=No   R3=No
   Joint=8   U1=Yes   U2=Yes   U3=No   R1=No   R2=No   R3=No
   Joint=9   U1=Yes   U2=Yes   U3=No   R1=No   R2=No   R3=No
   Joint=10   U1=Yes   U2=Yes   U3=Yes   R1=No   R2=No   R3=No
   Joint=11   U1=Yes   U2=Yes   U3=Yes   R1=No   R2=No   R3=No
   Joint=12   U1=Yes   U2=Yes   U3=No   R1=No   R2=No   R3=No
   Joint=13   U1=Yes   U2=Yes   U3=No   R1=No   R2=No   R3=No
   Joint=14   U1=Yes   U2=Yes   U3=No   R1=No   R2=No   R3=No
   Joint=15   U1=Yes   U2=Yes   U3=Yes   R1=No   R2=No   R3=No
   Joint=16   U1=Yes   U2=Yes   U3=Yes   R1=No   R2=No   R3=No
   Joint=17   U1=Yes   U2=Yes   U3=No   R1=No   R2=No   R3=No
   Joint=18   U1=Yes   U2=Yes   U3=No   R1=No   R2=No   R3=No
   Joint=19   U1=Yes   U2=Yes   U3=No   R1=No   R2=No   R3=No
   Joint=20   U1=Yes   U2=Yes   U3=Yes   R1=No   R2=No   R3=No
   Joint=21   U1=Yes   U2=Yes   U3=Yes   R1=No   R2=No   R3=No
   Joint=22   U1=Yes   U2=Yes   U3=No   R1=No   R2=No   R3=No
   Joint=23   U1=Yes   U2=Yes   U3=No   R1=No   R2=No   R3=No
   Joint=24   U1=Yes   U2=Yes   U3=No   R1=No   R2=No   R3=No
   Joint=25   U1=Yes   U2=Yes   U3=Yes   R1=No   R2=No   R3=No
   Joint=26   U1=Yes   U2=Yes   U3=Yes   R1=No   R2=No   R3=No
   Joint=27   U1=Yes   U2=Yes   U3=No   R1=No   R2=No   R3=No
   Joint=28   U1=Yes   U2=Yes   U3=No   R1=No   R2=No   R3=No
   Joint=29   U1=Yes   U2=Yes   U3=No   R1=No   R2=No   R3=No
   Joint=30   U1=Yes   U2=Yes   U3=Yes   R1=No   R2=No   R3=No
   Joint=31   U1=Yes   U2=Yes   U3=Yes   R1=No   R2=No   R3=No
   Joint=32   U1=Yes   U2=Yes   U3=Yes   R1=No   R2=No   R3=No
   Joint=33   U1=Yes   U2=Yes   U3=Yes   R1=No   R2=No   R3=No
   Joint=34   U1=Yes   U2=Yes   U3=Yes   R1=No   R2=No   R3=No
   Joint=35   U1=Yes   U2=Yes   U3=Yes   R1=No   R2=No   R3=No
 
TABLE:  "LOAD CASE DEFINITIONS"
   Case=DEAD   Type=LinStatic   InitialCond=Zero   DesTypeOpt="Prog Det"   DesignType=Dead   DesActOpt="Prog Det"   DesignAct=Non-Composite   AutoType=None   RunCase=Yes   GUID=c23f68c5-44f4-480c-9416-6fd3aca353fc
   Case=MODAL   Type=LinModal   InitialCond=Zero   DesTypeOpt="Prog Det"   DesignType=Other   DesActOpt="Prog Det"   DesignAct=Other   AutoType=None   RunCase=Yes   GUID=6c855d12-eea7-4b06-bd8f-0beecd8be672
 
TABLE:  "LOAD PATTERN DEFINITIONS"
   LoadPat=DEAD   DesignType=Dead   SelfWtMult=1   GUID=46f41b30-0a16-42ae-a322-9a7b9e73252e
 
TABLE:  "MASS SOURCE"
   MassSource=MSSSRC1   Elements=Yes   Masses=Yes   Loads=No   IsDefault=Yes
 
TABLE:  "MATERIAL PROPERTIES 01 - GENERAL"
   Material=4000Psi   Type=Concrete   Grade="f'c 4000 psi"   SymType=Isotropic   TempDepend=No   Color=Red   GUID=e975ba65-d226-4437-8995-4146f76caa30   Notes="Customary f'c 4000 psi 1/17/2026 11:05:44 AM"
   Material=A992Fy50   Type=Steel   Grade="Grade 50"   SymType=Isotropic   TempDepend=No   Color=Cyan   Notes="ASTM A992 Grade 50 1/17/2026 11:05:44 AM"
   Material=CONC   Type=Concrete   SymType=Isotropic   TempDepend=No   Color=Magenta
 
TABLE:  "MATERIAL PROPERTIES 02 - BASIC MECHANICAL PROPERTIES"
   Material=4000Psi   UnitWeight=8.680555556E-05   UnitMass=2.248332521E-07   E1=3604.9965   G12=1502.081875   U12=0.2   A1=5.5E-06
   Material=A992Fy50   UnitWeight=0.000283564814814815   UnitMass=7.34455290352564E-07   E1=29000   G12=11153.8461538462   U12=0.3   A1=6.5E-06
   Material=CONC   UnitWeight=8.68055555555556E-05   UnitMass=2.24833252148744E-07   E1=5076.32038149175   G12=2207.09581803989   U12=0.15   A1=0
 
TABLE:  "MATERIAL PROPERTIES 03A - STEEL DATA"
   Material=A992Fy50   Fy=50   Fu=65   EffFy=55   EffFu=71.5   SSCurveOpt=Simple   SSHysType=Kinematic   SHard=0.015   SMax=0.11   SRup=0.17   FinalSlope=-0.1   CoupModType="Von Mises"
 
TABLE:  "MATERIAL PROPERTIES 03B - CONCRETE DATA"
   Material=4000Psi   Fc=4   eFc=4   LtWtConc=No   SSCurveOpt=Mander   SSHysType=Takeda   SFc=0.00221914   SCap=0.005   FinalSlope=-0.1   FAngle=0   DAngle=0   CoupModType="Modified Darwin-Pecknold"
   Material=CONC   Fc=4   eFc=4   LtWtConc=No   SSCurveOpt=Mander   SSHysType=Takeda   SFc=0.00221914221766202   SCap=0.005   FinalSlope=-0.1   FAngle=0   DAngle=0   CoupModType="Modified Darwin-Pecknold"
 
TABLE:  "MATERIAL PROPERTIES 03J - COUPLED NONLINEAR VON MISES DATA"
   Material=A992Fy50   YieldStress=55   LinIsoHard=No   LinKinHard=No   NLIsoSaHard=No
 
TABLE:  "MATERIAL PROPERTIES 06 - DAMPING PARAMETERS"
   Material=4000Psi   ModalRatio=0   VisMass=0   VisStiff=0   HysMass=0   HysStiff=0
   Material=A992Fy50   ModalRatio=0   VisMass=0   VisStiff=0   HysMass=0   HysStiff=0
   Material=CONC   ModalRatio=0   VisMass=0   VisStiff=0   HysMass=0   HysStiff=0
 
TABLE:  "MATERIAL PROPERTIES 09 - ACCEPTANCE CRITERIA"
   Material=4000Psi   IOTens=0.01   LSTens=0.02   CPTens=0.05   IOComp=-0.003   LSComp=-0.006   CPComp=-0.015   IgnoreTens=Yes
   Material=A992Fy50   IOTens=0.01   LSTens=0.02   CPTens=0.05   IOComp=-0.005   LSComp=-0.01   CPComp=-0.02
   Material=CONC   IOTens=0.01   LSTens=0.02   CPTens=0.05   IOComp=-0.003   LSComp=-0.006   CPComp=-0.015   IgnoreTens=Yes
 
TABLE:  "OPTIONS - COLORS - DISPLAY"
   DeviceType=Screen   Points=Blue   LinesFrame=Blue   LinesFrmDL=Blue   LinesCable=Green   LinesTendon=Green   SpringLinks=Green   Restraints=Green   Releases=Green   Axes=Cyan   Text=Black   ShadowLines=Gray8Dark   GuideLines=Gray8Dark _
        Highlight=Red   Selection=10504778   AreaFillBot=Red   AreaFillTop=16744703   AreaFillSd=Red   AreaEdge=DarkRed   SolidF1=Red   SolidF2=Blue   SolidF3=Green   SolidF4=Yellow   SolidF5=White   SolidF6=Cyan   SolidEdge=DarkRed _
        Floor=Gray4   Background=White   BGLowLeft=White   BGLowRight=White   BGUpRight=White   Darkness=0.5
   DeviceType=Printer   Points=Gray8Dark   LinesFrame=Black   LinesFrmDL=Gray4   LinesCable=Black   LinesTendon=Black   SpringLinks=Gray8Dark   Restraints=Gray8Dark   Releases=Gray4   Axes=Black   Text=Black   ShadowLines=Gray4 _
        GuideLines=Gray4   Highlight=Black   Selection=Black   AreaFillBot=Gray4   AreaFillTop=Gray8Dark   AreaFillSd=Gray4   AreaEdge=Black   SolidF1=Gray1Light   SolidF2=Gray2   SolidF3=Gray3   SolidF4=Gray4   SolidF5=Gray5 _
        SolidF6=Gray6   SolidEdge=Black   Floor=Gray4   Background=White   BGLowLeft=White   BGLowRight=White   BGUpRight=White   Darkness=0.5
   DeviceType="Color Printer"   Points=Blue   LinesFrame=Blue   LinesFrmDL=Blue   LinesCable=Green   LinesTendon=Green   SpringLinks=Green   Restraints=Green   Releases=Green   Axes=Cyan   Text=Black   ShadowLines=Gray8Dark _
        GuideLines=Gray8Dark   Highlight=Red   Selection=10504778   AreaFillBot=Red   AreaFillTop=16744703   AreaFillSd=Red   AreaEdge=DarkRed   SolidF1=Red   SolidF2=Blue   SolidF3=Green   SolidF4=Yellow   SolidF5=White   SolidF6=Cyan _
        SolidEdge=DarkRed   Floor=Gray4   Background=White   BGLowLeft=White   BGLowRight=White   BGUpRight=White   Darkness=0.5
 
TABLE:  "OPTIONS - COLORS - OUTPUT"
   DeviceType=Screen   Contour1=13107400   Contour2=6553828   Contour3=Red   Contour4=16639   Contour5=Orange   Contour6=43775   Contour7=54527   Contour8=Yellow   Contour9=65408   Contour10=Green   Contour11=8453888   Contour12=Cyan _
        Contour13=16755200   Contour14=16733440   Contour15=Blue   Transpare=0   Ratio1=Cyan   Ratio2=Green   Ratio3=Yellow   Ratio4=Orange   Ratio5=Red   RatioNotD=Gray4   RatioNotC=Red   RatioVal1=0.5   RatioVal2=0.7   RatioVal3=0.9 _
        RatioVal4=1   DFillPos=Blue   DFillNeg=Red   DFillRPos=Green   DFillRNeg=Green
   DeviceType=Printer   Contour1=Black   Contour2=3158064   Contour3=4210752   Contour4=5263440   Contour5=6316128   Contour6=7368816   Contour7=Gray8Dark   Contour8=Gray7   Contour9=Gray6   Contour10=Gray5   Contour11=Gray4 _
        Contour12=Gray3   Contour13=Gray2   Contour14=Gray1Light   Contour15=White   Transpare=0   Ratio1=Gray2   Ratio2=Gray4   Ratio3=Gray8Dark   Ratio4=4210752   Ratio5=Black   RatioNotD=Gray4   RatioNotC=Black   RatioVal1=0.5 _
        RatioVal2=0.7   RatioVal3=0.9   RatioVal4=1   DFillPos=Gray8Dark   DFillNeg=Gray8Dark   DFillRPos=4210752   DFillRNeg=4210752
   DeviceType="Color Printer"   Contour1=13107400   Contour2=6553828   Contour3=Red   Contour4=16639   Contour5=Orange   Contour6=43775   Contour7=54527   Contour8=Yellow   Contour9=65408   Contour10=Green   Contour11=8453888 _
        Contour12=Cyan   Contour13=16755200   Contour14=16733440   Contour15=Blue   Transpare=0   Ratio1=Cyan   Ratio2=Green   Ratio3=Yellow   Ratio4=Orange   Ratio5=Red   RatioNotD=Gray4   RatioNotC=Red   RatioVal1=0.5   RatioVal2=0.7 _
        RatioVal3=0.9   RatioVal4=1   DFillPos=Blue   DFillNeg=Red   DFillRPos=Green   DFillRNeg=Green
 
TABLE:  "PREFERENCES - ALUMINUM DESIGN - AA 2015"
   THDesign=Envelopes   SRatioLimit=1   Provision=LRFD   LatFact=1.33333333333333   UseLatFact=No   Bridge=No   PhiTy=0.9   PhiTr=0.75   PhiC=0.9   PhiBo=0.9   PhiBr=0.75   PhiVo=0.9   PhiVr=0.75
 
TABLE:  "PREFERENCES - COLD FORMED DESIGN - AISI-16"
   THDesign=Envelopes   FrameType="Braced Frame"   SRatioLimit=1   SOMethod="General 2nd Order"   Provision=LRFD   LatFact=1.33333333333333   UseLatFact=No   PhiTy=0.9   PhiTr=0.75   PhiC=0.85   PhiB=0.9   PhiBPipe=0.95   PhiV=0.95
 
TABLE:  "PREFERENCES - CONCRETE DESIGN - ACI 318-19"
   THDesign=Envelopes   NumCurves=24   NumPoints=11   MinEccen=Yes   BCCDesign=Yes   IgnoreBPu=Yes   CTorsion=Yes   PatLLF=0.75   UFLimit=0.95   SeisCat=D   Rho=1   Sds=0.5   PhiT=0.9   PhiCTied=0.65   PhiCSpiral=0.75   PhiV=0.75 _
        PhiVSeismic=0.6   PhiVJoint=0.85   TanTheta=1
 
TABLE:  "PREFERENCES - CONCRETE SHELL DESIGN - EUROCODE 2-2004"
   Country="CEN Default"   GammaS=1.15   GammaC=1.5   AlphaCC=1   AlphaCT=1   CrackCond="Program Determined"   ShrDesMet="Method 1"   CotTheta=1
 
TABLE:  "PREFERENCES - DIMENSIONAL"
   MergeTol=0.1   FineGrid=12   Nudge=12   SelectTol=3   SnapTol=12   SLineThick=1   PLineThick=4   MaxFont=8   MinFont=3   AutoZoom=10   ShrinkFact=70   TextFileLen=240
 
TABLE:  "PREFERENCES - STEEL DESIGN - AISC 360-16"
   THDesign=Envelopes   FrameType=SMF   PatLLF=0.75   SRatioLimit=0.95   MaxIter=1   SDC=D   SeisCode=No   SeisLoad=No   ImpFactor=1   SystemRho=1   SystemSds=0.5   SystemR=8   SystemCd=5.5   Omega0=3   Provision=LRFD _
        AMethod="Direct Analysis"   SOMethod="General 2nd Order"   SRMethod="Tau-b Fixed"   NLCoeff=0.002   PhiB=0.9   PhiC=0.9   PhiTY=0.9   PhiTF=0.75   PhiV=0.9   PhiVRolledI=1   PhiVT=0.9   PlugWeld=Yes   HSSWelding=ERW   HSSReduceT=No _
        CheckDefl=No   DLRat=120   SDLAndLLRat=120   LLRat=360   TotalRat=240   NetRat=240
 
TABLE:  "PROGRAM CONTROL"
   ProgramName=SAP2000   Version=24.1.0   CurrUnits="Kip, in, F"   SteelCode="AISC 360-16"   ConcCode="ACI 318-19"   AlumCode="AA 2015"   ColdCode=AISI-16   RegenHinge=Yes
 
TABLE:  "PROJECT INFORMATION"
   Item="Company Name"
   Item="Client Name"
   Item="Project Name"
   Item="Project Number"
   Item="Model Name"
   Item="Model Description"
   Item="Revision Number"
   Item="Frame Type"
   Item=Engineer
   Item=Checker
   Item=Supervisor
   Item="Issue Code"
   Item="Design Code"
 
TABLE:  "REBAR SIZES"
   RebarID=#2   Area=0.05   Diameter=0.25
   RebarID=#3   Area=0.109999999403954   Diameter=0.375
   RebarID=#4   Area=0.200000002980232   Diameter=0.5
   RebarID=#5   Area=0.310000002384186   Diameter=0.625
   RebarID=#6   Area=0.439999997615814   Diameter=0.75
   RebarID=#7   Area=0.600000023841858   Diameter=0.875
   RebarID=#8   Area=0.790000021457672   Diameter=1
   RebarID=#9   Area=1   Diameter=1.12800002098083
   RebarID=#10   Area=1.26999998092651   Diameter=1.26999998092651
   RebarID=#11   Area=1.55999994277954   Diameter=1.4099999666214
   RebarID=#14   Area=2.25   Diameter=1.692999958992
   RebarID=#18   Area=4   Diameter=2.25699996948242
   RebarID=10M   Area=0.155000314116478   Diameter=0.444881916046143
   RebarID=15M   Area=0.310000628232956   Diameter=0.62992125749588
   RebarID=20M   Area=0.465000957250595   Diameter=0.767716526985168
   RebarID=25M   Area=0.775001585483551   Diameter=0.992126047611237
   RebarID=30M   Area=1.08500218391418   Diameter=1.17716538906097
   RebarID=35M   Area=1.5500031709671   Diameter=1.4055118560791
   RebarID=45M   Area=2.3250048160553   Diameter=1.72047245502472
   RebarID=55M   Area=3.87500786781311   Diameter=2.22047257423401
   RebarID=6d   Area=0.0438650883734226   Diameter=0.236220479011536
   RebarID=8d   Area=0.0779651552438736   Diameter=0.31496062874794
   RebarID=10d   Area=0.121675245463848   Diameter=0.393700778484344
   RebarID=12d   Area=0.175150364637375   Diameter=0.472440958023071
   RebarID=14d   Area=0.238700494170189   Diameter=0.551181137561798
   RebarID=16d   Area=0.31155064702034   Diameter=0.62992125749588
   RebarID=20d   Area=0.486700981855392   Diameter=0.787401556968689
   RebarID=25d   Area=0.761051535606384   Diameter=0.984251976013184
   RebarID=26d   Area=0.823051691055298   Diameter=1.02362203598022
   RebarID=28d   Area=0.954801976680756   Diameter=1.1023622751236
   RebarID=N12   Area=0.175150364637375   Diameter=0.472440958023071
   RebarID=N16   Area=0.31155064702034   Diameter=0.62992125749588
   RebarID=N20   Area=0.486700981855392   Diameter=0.787401556968689
   RebarID=N24   Area=0.7006014585495   Diameter=0.944881916046143
   RebarID=N28   Area=0.954801976680756   Diameter=1.1023622751236
   RebarID=N32   Area=1.24620258808136   Diameter=1.25984251499176
   RebarID=N36   Area=1.58100318908691   Diameter=1.41732287406921
 
END TABLE DATA
