File C:\Users\j-b-j\Documents\Calcpad-7.5.7\SAP2000_LosaConFrames.$2k was saved on m/d/yy at h:mm:ss
 
TABLE:  "ACTIVE DEGREES OF FREEDOM"
   UX=Yes   UY=Yes   UZ=Yes   RX=Yes   RY=Yes   RZ=Yes
 
TABLE:  "ANALYSIS OPTIONS"
   Solver=Advanced   SolverProc=Auto   Force32Bit=No   StiffCase=None   GeomMod=None   HingeOpt="In Elements"   NumAThreads=0   MaxFileSize=0   NumDThreads=0   NumRThreads=0   UseMMFiles="Program Determined"   AllowDiff=No
 
TABLE:  "AREA LOADS - UNIFORM"
   Area=L1   LoadPat=DEAD   CoordSys=GLOBAL   Dir=Z   UnifLoad=10
   Area=L2   LoadPat=DEAD   CoordSys=GLOBAL   Dir=Z   UnifLoad=10
   Area=L3   LoadPat=DEAD   CoordSys=GLOBAL   Dir=Z   UnifLoad=10
   Area=L4   LoadPat=DEAD   CoordSys=GLOBAL   Dir=Z   UnifLoad=10
   Area=L5   LoadPat=DEAD   CoordSys=GLOBAL   Dir=Z   UnifLoad=10
   Area=L6   LoadPat=DEAD   CoordSys=GLOBAL   Dir=Z   UnifLoad=10
   Area=L7   LoadPat=DEAD   CoordSys=GLOBAL   Dir=Z   UnifLoad=10
   Area=L8   LoadPat=DEAD   CoordSys=GLOBAL   Dir=Z   UnifLoad=10
   Area=L9   LoadPat=DEAD   CoordSys=GLOBAL   Dir=Z   UnifLoad=10
   Area=L10   LoadPat=DEAD   CoordSys=GLOBAL   Dir=Z   UnifLoad=10
   Area=L11   LoadPat=DEAD   CoordSys=GLOBAL   Dir=Z   UnifLoad=10
   Area=L12   LoadPat=DEAD   CoordSys=GLOBAL   Dir=Z   UnifLoad=10
   Area=L13   LoadPat=DEAD   CoordSys=GLOBAL   Dir=Z   UnifLoad=10
   Area=L14   LoadPat=DEAD   CoordSys=GLOBAL   Dir=Z   UnifLoad=10
   Area=L15   LoadPat=DEAD   CoordSys=GLOBAL   Dir=Z   UnifLoad=10
   Area=L16   LoadPat=DEAD   CoordSys=GLOBAL   Dir=Z   UnifLoad=10
   Area=L17   LoadPat=DEAD   CoordSys=GLOBAL   Dir=Z   UnifLoad=10
   Area=L18   LoadPat=DEAD   CoordSys=GLOBAL   Dir=Z   UnifLoad=10
   Area=L19   LoadPat=DEAD   CoordSys=GLOBAL   Dir=Z   UnifLoad=10
   Area=L20   LoadPat=DEAD   CoordSys=GLOBAL   Dir=Z   UnifLoad=10
# ... 4 like lines cut
 
TABLE:  "AREA SECTION ASSIGNMENTS"
   Area=L1   Section=LOSA   MatProp=Default
   Area=L2   Section=LOSA   MatProp=Default
   Area=L3   Section=LOSA   MatProp=Default
   Area=L4   Section=LOSA   MatProp=Default
   Area=L5   Section=LOSA   MatProp=Default
   Area=L6   Section=LOSA   MatProp=Default
   Area=L7   Section=LOSA   MatProp=Default
   Area=L8   Section=LOSA   MatProp=Default
   Area=L9   Section=LOSA   MatProp=Default
   Area=L10   Section=LOSA   MatProp=Default
   Area=L11   Section=LOSA   MatProp=Default
   Area=L12   Section=LOSA   MatProp=Default
   Area=L13   Section=LOSA   MatProp=Default
   Area=L14   Section=LOSA   MatProp=Default
   Area=L15   Section=LOSA   MatProp=Default
   Area=L16   Section=LOSA   MatProp=Default
   Area=L17   Section=LOSA   MatProp=Default
   Area=L18   Section=LOSA   MatProp=Default
   Area=L19   Section=LOSA   MatProp=Default
   Area=L20   Section=LOSA   MatProp=Default
# ... 4 like lines cut
 
TABLE:  "AREA SECTION PROPERTIES"
   Section=LOSA   Material=CONCRETO   MatAngle=0   AreaType=Shell   Type=Plate-Thin   Thickness=0.1   BendThick=0.1   Color=Black   F11Mod=1   F22Mod=1   F12Mod=1   M11Mod=1   M22Mod=1   M12Mod=1   V13Mod=1   V23Mod=1   MMod=1   WMod=1
 
TABLE:  "AREA SECTION PROPERTY DESIGN PARAMETERS"
   Section=LOSA   RebarMat=None   RebarOpt=Default
 
TABLE:  "AREA SECTION PROPERTY - TIME DEPENDENT"
   Section=LOSA   TypeSize=Auto   AutoSFSize=1
 
TABLE:  "AUTO WAVE 3 - WAVE CHARACTERISTICS - GENERAL"
   WaveChar=Default   WaveType="From Theory"   KinFactor=1   SWaterDepth=45   WaveHeight=18   WavePeriod=12   WaveTheory=Linear
 
TABLE:  "CASE - MODAL 1 - GENERAL"
   Case=MODAL   ModeType=Eigen   MaxNumModes=12   MinNumModes=1   EigenShift=0   EigenCutoff=0   EigenTol=1E-09   AutoShift=Yes
 
TABLE:  "CASE - STATIC 1 - LOAD ASSIGNMENTS"
   Case=DEAD   LoadType="Load pattern"   LoadName=DEAD   LoadSF=1
 
TABLE:  "CONNECTIVITY - AREA"
   Area=L1   Joint1=1   Joint2=6   Joint3=7   Joint4=2   GUID=8f1f77b5-1961-46b9-b04e-575e4c0d8b1c
   Area=L2   Joint1=2   Joint2=7   Joint3=8   Joint4=3   GUID=b8e82cd2-4f1b-49e1-850f-692294e1bd32
   Area=L3   Joint1=3   Joint2=8   Joint3=9   Joint4=4   GUID=bf7b1770-c54b-4fd6-ad2d-11dfa99958d5
   Area=L4   Joint1=4   Joint2=9   Joint3=10   Joint4=5   GUID=ae498c35-eea4-4eec-ba90-54301811288f
   Area=L5   Joint1=6   Joint2=11   Joint3=12   Joint4=7   GUID=c805ab56-82b6-4200-b5cc-92058ad9b571
   Area=L6   Joint1=7   Joint2=12   Joint3=13   Joint4=8   GUID=30e146b9-21b9-47f8-91b8-d7939536bba5
   Area=L7   Joint1=8   Joint2=13   Joint3=14   Joint4=9   GUID=3c55a70a-3d16-4159-875a-16c4959ec2b3
   Area=L8   Joint1=9   Joint2=14   Joint3=15   Joint4=10   GUID=35697c65-8cae-457d-8d80-8a544b1d00dd
   Area=L9   Joint1=11   Joint2=16   Joint3=17   Joint4=12   GUID=37f476e4-143c-4855-b03a-1432547423ae
   Area=L10   Joint1=12   Joint2=17   Joint3=18   Joint4=13   GUID=0bc62fe4-b2cb-47e4-b442-4961d01f8bb9
   Area=L11   Joint1=13   Joint2=18   Joint3=19   Joint4=14   GUID=3c2f85e0-a8cb-4340-8341-0a8949068c6d
   Area=L12   Joint1=14   Joint2=19   Joint3=20   Joint4=15   GUID=d2f09503-9b61-4457-b654-fb071d5e612c
   Area=L13   Joint1=16   Joint2=21   Joint3=22   Joint4=17   GUID=747a5e8c-eac8-404c-8cd9-3055352560c7
   Area=L14   Joint1=17   Joint2=22   Joint3=23   Joint4=18   GUID=cbbbe315-5512-4d54-82ab-91e5e63aaef7
   Area=L15   Joint1=18   Joint2=23   Joint3=24   Joint4=19   GUID=29065b40-f216-42f8-a81e-912b0f4a06c3
   Area=L16   Joint1=19   Joint2=24   Joint3=25   Joint4=20   GUID=01ad473c-2ccf-491e-bc6d-9069b7c34e0f
   Area=L17   Joint1=21   Joint2=26   Joint3=27   Joint4=22   GUID=d3a09f67-3b0d-45eb-bc71-c62fce421640
   Area=L18   Joint1=22   Joint2=27   Joint3=28   Joint4=23   GUID=7a408ece-570b-4953-8c37-0489b2f1bb7e
   Area=L19   Joint1=23   Joint2=28   Joint3=29   Joint4=24   GUID=2f5c260b-9770-4ed7-a492-10335ebe5f97
   Area=L20   Joint1=24   Joint2=29   Joint3=30   Joint4=25   GUID=e0b2f443-15b7-4621-abd8-18b0214585aa
   Area=L21   Joint1=26   Joint2=31   Joint3=32   Joint4=27   GUID=e69bc59e-9db1-4eef-8f5d-bb08dcfacca0
   Area=L22   Joint1=27   Joint2=32   Joint3=33   Joint4=28   GUID=2cc4c5b5-8e86-41b4-8ed8-20700ad2a239
   Area=L23   Joint1=28   Joint2=33   Joint3=34   Joint4=29   GUID=d2bd9487-addf-4ec1-a441-c2e5106b6a7d
   Area=L24   Joint1=29   Joint2=34   Joint3=35   Joint4=30   GUID=2255ce3b-971e-4c95-ba8a-1aa222297d80
 
TABLE:  "COORDINATE SYSTEMS"
   Name=GLOBAL   Type=Cartesian   X=0   Y=0   Z=0   AboutZ=0   AboutY=0   AboutX=0
 
TABLE:  "DATABASE DOCUMENTATION"
 
TABLE:  "DATABASE FORMAT TYPES"
   UnitsCurr=Yes   OverrideE=No
 
TABLE:  "FRAME SECTION PROPERTIES 01 - GENERAL"
   SectionName=APOYO   Material=CONCRETO   Shape=Rectangular   t3=0.01   t2=0.01   Area=0.0001   TorsConst=1.40833333333333E-09   I33=8.33333333333333E-10   I22=8.33333333333333E-10   I23=0   AS2=8.33333333333333E-05 _
        AS3=8.33333333333333E-05   S33Top=1.66666666666667E-07   S33Bot=1.66666666666667E-07   S22Left=1.66666666666667E-07   S22Right=1.66666666666667E-07   Z33=2.5E-07   Z22=2.5E-07   R33=0.00288675134594813   R22=0.00288675134594813 _
        CGOffset3=0   CGOffset2=0   EccV2=0   EccV3=0   Cw=0   Color=Yellow   FromFile=No   AMod=1   A2Mod=1   A3Mod=1   JMod=1   I2Mod=1   I3Mod=1   MMod=1   WMod=1
 
TABLE:  "FRAME SECTION PROPERTIES 13 - TIME DEPENDENT"
   SectionName=APOYO   TypeSize=Auto   AutoSFSize=1
 
TABLE:  "FUNCTION - PLOT FUNCTIONS"
   PlotFunc="Input Energy"   Type=Energy   Component=Input   Mode=All
 
TABLE:  "FUNCTION - POWER SPECTRAL DENSITY - USER"
   Name=UNIFPSD   Frequency=0   Value=1
   Name=UNIFPSD   Frequency=1   Value=1
 
TABLE:  "FUNCTION - RESPONSE SPECTRUM - USER"
   Name=UNIFRS   Period=0   Accel=1   FuncDamp=0.05
   Name=UNIFRS   Period=1   Accel=1
 
TABLE:  "FUNCTION - STEADY STATE - USER"
   Name=UNIFSS   Frequency=0   Value=1
   Name=UNIFSS   Frequency=1   Value=1
 
TABLE:  "FUNCTION - TIME HISTORY - USER"
   Name=RAMPTH   Time=0   Value=0
   Name=RAMPTH   Time=1   Value=1
   Name=RAMPTH   Time=4   Value=1
   Name=UNIFTH   Time=0   Value=1
   Name=UNIFTH   Time=1   Value=1
 
TABLE:  "GROUPS 1 - DEFINITIONS"
   GroupName=ALL   Selection=Yes   SectionCut=Yes   Steel=Yes   Concrete=Yes   Aluminum=Yes   ColdFormed=Yes   Stage=Yes   Bridge=Yes   AutoSeismic=No   AutoWind=No   SelDesSteel=No   SelDesAlum=No   SelDesCold=No   MassWeight=Yes   Color=Red
 
TABLE:  "JOINT COORDINATES"
   Joint=1   CoordSys=GLOBAL   CoordType=Cartesian   XorR=0   Y=0   Z=0   SpecialJt=Yes   GUID=259b8736-5e43-4a37-be5a-7f6f2fa7675e
   Joint=2   CoordSys=GLOBAL   CoordType=Cartesian   XorR=0   Y=1   Z=0   SpecialJt=Yes   GUID=96ee9781-dd9c-4f45-8439-5a06d87c7af9
   Joint=3   CoordSys=GLOBAL   CoordType=Cartesian   XorR=0   Y=2   Z=0   SpecialJt=Yes   GUID=9e87ca73-90fb-4a8f-93c6-aadcfee7e624
   Joint=4   CoordSys=GLOBAL   CoordType=Cartesian   XorR=0   Y=3   Z=0   SpecialJt=Yes   GUID=193860ff-8ab7-463b-bc56-0aff24c32946
   Joint=5   CoordSys=GLOBAL   CoordType=Cartesian   XorR=0   Y=4   Z=0   SpecialJt=Yes   GUID=6d4a1c6b-fd9d-4838-84be-47f96d183f16
   Joint=6   CoordSys=GLOBAL   CoordType=Cartesian   XorR=1   Y=0   Z=0   SpecialJt=Yes   GUID=e5227ddd-c26a-46cf-aaaf-330dbe97d369
   Joint=7   CoordSys=GLOBAL   CoordType=Cartesian   XorR=1   Y=1   Z=0   SpecialJt=Yes   GUID=e558ab28-d92c-4c8f-b036-74ecd094180a
   Joint=8   CoordSys=GLOBAL   CoordType=Cartesian   XorR=1   Y=2   Z=0   SpecialJt=Yes   GUID=c2f9dae2-c728-48bb-9711-b1211b8de315
   Joint=9   CoordSys=GLOBAL   CoordType=Cartesian   XorR=1   Y=3   Z=0   SpecialJt=Yes   GUID=228c271c-2121-403f-ba18-2c21928587d4
   Joint=10   CoordSys=GLOBAL   CoordType=Cartesian   XorR=1   Y=4   Z=0   SpecialJt=Yes   GUID=42261401-c5df-4d92-8dd0-0b4e823e1b8f
   Joint=11   CoordSys=GLOBAL   CoordType=Cartesian   XorR=2   Y=0   Z=0   SpecialJt=Yes   GUID=cf269beb-d6e3-4b00-9a80-b14e53b7e1e5
   Joint=12   CoordSys=GLOBAL   CoordType=Cartesian   XorR=2   Y=1   Z=0   SpecialJt=Yes   GUID=cd577175-99ab-4372-a849-bf5c2bf9ac69
   Joint=13   CoordSys=GLOBAL   CoordType=Cartesian   XorR=2   Y=2   Z=0   SpecialJt=Yes   GUID=1325e895-6013-478a-a166-367fb5690824
   Joint=14   CoordSys=GLOBAL   CoordType=Cartesian   XorR=2   Y=3   Z=0   SpecialJt=Yes   GUID=e09cf961-beba-465d-b9fd-b65c5f269a05
   Joint=15   CoordSys=GLOBAL   CoordType=Cartesian   XorR=2   Y=4   Z=0   SpecialJt=Yes   GUID=f68af7fe-7f79-4b84-86fa-2ed5a302d421
   Joint=16   CoordSys=GLOBAL   CoordType=Cartesian   XorR=3   Y=0   Z=0   SpecialJt=Yes   GUID=9376a01a-09e8-4ee9-ab2f-415061851d65
   Joint=17   CoordSys=GLOBAL   CoordType=Cartesian   XorR=3   Y=1   Z=0   SpecialJt=Yes   GUID=1732e7c9-443e-43dd-9653-307b2ab63b3e
   Joint=18   CoordSys=GLOBAL   CoordType=Cartesian   XorR=3   Y=2   Z=0   SpecialJt=Yes   GUID=fc499276-2e20-48f1-bbe3-20b2636a8bd9
   Joint=19   CoordSys=GLOBAL   CoordType=Cartesian   XorR=3   Y=3   Z=0   SpecialJt=Yes   GUID=22b2e7b9-b5a7-45af-9e42-3334cb1da9d3
   Joint=20   CoordSys=GLOBAL   CoordType=Cartesian   XorR=3   Y=4   Z=0   SpecialJt=Yes   GUID=24189732-66c5-4d58-8d12-6872dfe40e05
   Joint=21   CoordSys=GLOBAL   CoordType=Cartesian   XorR=4   Y=0   Z=0   SpecialJt=Yes   GUID=7395216a-1667-41be-8ee1-602354140f1f
   Joint=22   CoordSys=GLOBAL   CoordType=Cartesian   XorR=4   Y=1   Z=0   SpecialJt=Yes   GUID=67f98d67-5b98-46da-98ac-59217a37059a
   Joint=23   CoordSys=GLOBAL   CoordType=Cartesian   XorR=4   Y=2   Z=0   SpecialJt=Yes   GUID=3f9b8e59-20cf-49ad-b2a4-1e9148994fa2
   Joint=24   CoordSys=GLOBAL   CoordType=Cartesian   XorR=4   Y=3   Z=0   SpecialJt=Yes   GUID=3a5ba010-9130-47be-828a-b0ac03aea082
   Joint=25   CoordSys=GLOBAL   CoordType=Cartesian   XorR=4   Y=4   Z=0   SpecialJt=Yes   GUID=69f68fc8-6cb4-4693-b28e-72d0c9828efb
   Joint=26   CoordSys=GLOBAL   CoordType=Cartesian   XorR=5   Y=0   Z=0   SpecialJt=Yes   GUID=88db327d-9924-4fbf-8e5c-9449b386c3e1
   Joint=27   CoordSys=GLOBAL   CoordType=Cartesian   XorR=5   Y=1   Z=0   SpecialJt=Yes   GUID=6906794d-7df9-4cde-ab71-0d81f64289c8
   Joint=28   CoordSys=GLOBAL   CoordType=Cartesian   XorR=5   Y=2   Z=0   SpecialJt=Yes   GUID=99c008f9-87fa-4e8a-892f-b46b2ec53234
   Joint=29   CoordSys=GLOBAL   CoordType=Cartesian   XorR=5   Y=3   Z=0   SpecialJt=Yes   GUID=4042ca85-a8cc-451b-9079-3c0cb55c64ef
   Joint=30   CoordSys=GLOBAL   CoordType=Cartesian   XorR=5   Y=4   Z=0   SpecialJt=Yes   GUID=e1c06cde-36fb-4ca7-a62d-84895e6dce5b
   Joint=31   CoordSys=GLOBAL   CoordType=Cartesian   XorR=6   Y=0   Z=0   SpecialJt=Yes   GUID=d7944f20-4129-4260-8c25-c07e41a30974
   Joint=32   CoordSys=GLOBAL   CoordType=Cartesian   XorR=6   Y=1   Z=0   SpecialJt=Yes   GUID=0d16268e-b770-4c5a-9d89-b48ad742881b
   Joint=33   CoordSys=GLOBAL   CoordType=Cartesian   XorR=6   Y=2   Z=0   SpecialJt=Yes   GUID=5e164854-afba-49d3-bb30-67c4ea1f8138
   Joint=34   CoordSys=GLOBAL   CoordType=Cartesian   XorR=6   Y=3   Z=0   SpecialJt=Yes   GUID=c18befe5-f7f9-404a-9990-50d94fec4a84
   Joint=35   CoordSys=GLOBAL   CoordType=Cartesian   XorR=6   Y=4   Z=0   SpecialJt=Yes   GUID=1a36b57c-e025-49bf-a825-e2c1f3cfc5a0
   Joint=36   CoordSys=GLOBAL   CoordType=Cartesian   XorR=0   Y=0   Z=-0.001   SpecialJt=Yes   GUID=5b7b0715-14c2-4981-8835-4a8d8dd1de40
   Joint=37   CoordSys=GLOBAL   CoordType=Cartesian   XorR=0   Y=1   Z=-0.001   SpecialJt=Yes   GUID=d8d0d884-b574-43ac-8ebe-d4fa4b366940
   Joint=38   CoordSys=GLOBAL   CoordType=Cartesian   XorR=0   Y=2   Z=-0.001   SpecialJt=Yes   GUID=8828ea68-ce04-46d6-bc50-025d122c06d9
   Joint=39   CoordSys=GLOBAL   CoordType=Cartesian   XorR=0   Y=3   Z=-0.001   SpecialJt=Yes   GUID=28d9d9d2-3672-4508-bbd0-dd82165c2e66
   Joint=40   CoordSys=GLOBAL   CoordType=Cartesian   XorR=0   Y=4   Z=-0.001   SpecialJt=Yes   GUID=4d8a2dea-43b8-40fc-a771-273d2978b9fe
   Joint=41   CoordSys=GLOBAL   CoordType=Cartesian   XorR=1   Y=0   Z=-0.001   SpecialJt=Yes   GUID=3934849f-e471-4547-ba06-1b51001aca91
   Joint=42   CoordSys=GLOBAL   CoordType=Cartesian   XorR=1   Y=4   Z=-0.001   SpecialJt=Yes   GUID=e57f8c7b-e7bb-4d6b-b6b6-104220d55887
   Joint=43   CoordSys=GLOBAL   CoordType=Cartesian   XorR=2   Y=0   Z=-0.001   SpecialJt=Yes   GUID=0f43b8cf-0269-48f3-8a4b-53fad8663063
   Joint=44   CoordSys=GLOBAL   CoordType=Cartesian   XorR=2   Y=4   Z=-0.001   SpecialJt=Yes   GUID=7daa12d2-ec2f-4e0c-8a23-3a93c62f56ee
   Joint=45   CoordSys=GLOBAL   CoordType=Cartesian   XorR=3   Y=0   Z=-0.001   SpecialJt=Yes   GUID=1344c8bd-53f2-4e3b-b287-3982f03630a2
   Joint=46   CoordSys=GLOBAL   CoordType=Cartesian   XorR=3   Y=4   Z=-0.001   SpecialJt=Yes   GUID=014808b6-bcf8-4b82-aa7b-99403a19002b
   Joint=47   CoordSys=GLOBAL   CoordType=Cartesian   XorR=4   Y=0   Z=-0.001   SpecialJt=Yes   GUID=0331892f-45f8-4e43-8131-accc7b8696fe
   Joint=48   CoordSys=GLOBAL   CoordType=Cartesian   XorR=4   Y=4   Z=-0.001   SpecialJt=Yes   GUID=2cc74e8f-b617-475c-b34b-e09514847df8
   Joint=49   CoordSys=GLOBAL   CoordType=Cartesian   XorR=5   Y=0   Z=-0.001   SpecialJt=Yes   GUID=57871c02-8663-4ea4-a618-bab950c2c171
   Joint=50   CoordSys=GLOBAL   CoordType=Cartesian   XorR=5   Y=4   Z=-0.001   SpecialJt=Yes   GUID=79f6982e-b2c7-4f72-b3a0-dc39a25f5a5d
   Joint=51   CoordSys=GLOBAL   CoordType=Cartesian   XorR=6   Y=0   Z=-0.001   SpecialJt=Yes   GUID=ed32f182-cdfe-41ee-81fa-01172f8f0606
   Joint=52   CoordSys=GLOBAL   CoordType=Cartesian   XorR=6   Y=1   Z=-0.001   SpecialJt=Yes   GUID=e7774802-a350-4c15-a388-3daecac5bdc0
   Joint=53   CoordSys=GLOBAL   CoordType=Cartesian   XorR=6   Y=2   Z=-0.001   SpecialJt=Yes   GUID=4d0736ca-d891-4d6f-a289-bb39b4eafd05
   Joint=54   CoordSys=GLOBAL   CoordType=Cartesian   XorR=6   Y=3   Z=-0.001   SpecialJt=Yes   GUID=a193ef12-2d44-47c3-8251-70b7c1d984bb
   Joint=55   CoordSys=GLOBAL   CoordType=Cartesian   XorR=6   Y=4   Z=-0.001   SpecialJt=Yes   GUID=23f61ec7-40fc-4c5d-8943-b5d23f3ca8bb
 
TABLE:  "JOINT PATTERN DEFINITIONS"
   Pattern=Default
 
TABLE:  "JOINT RESTRAINT ASSIGNMENTS"
   Joint=36   U1=Yes   U2=Yes   U3=Yes   R1=Yes   R2=Yes   R3=Yes
   Joint=37   U1=No   U2=No   U3=Yes   R1=Yes   R2=Yes   R3=Yes
   Joint=38   U1=No   U2=No   U3=Yes   R1=Yes   R2=Yes   R3=Yes
   Joint=39   U1=No   U2=No   U3=Yes   R1=Yes   R2=Yes   R3=Yes
   Joint=40   U1=Yes   U2=No   U3=Yes   R1=Yes   R2=Yes   R3=Yes
   Joint=41   U1=No   U2=No   U3=Yes   R1=Yes   R2=Yes   R3=Yes
   Joint=42   U1=No   U2=No   U3=Yes   R1=Yes   R2=Yes   R3=Yes
   Joint=43   U1=No   U2=No   U3=Yes   R1=Yes   R2=Yes   R3=Yes
   Joint=44   U1=No   U2=No   U3=Yes   R1=Yes   R2=Yes   R3=Yes
   Joint=45   U1=No   U2=No   U3=Yes   R1=Yes   R2=Yes   R3=Yes
   Joint=46   U1=No   U2=No   U3=Yes   R1=Yes   R2=Yes   R3=Yes
   Joint=47   U1=No   U2=No   U3=Yes   R1=Yes   R2=Yes   R3=Yes
   Joint=48   U1=No   U2=No   U3=Yes   R1=Yes   R2=Yes   R3=Yes
   Joint=49   U1=No   U2=No   U3=Yes   R1=Yes   R2=Yes   R3=Yes
   Joint=50   U1=No   U2=No   U3=Yes   R1=Yes   R2=Yes   R3=Yes
   Joint=51   U1=No   U2=Yes   U3=Yes   R1=Yes   R2=Yes   R3=Yes
   Joint=52   U1=No   U2=No   U3=Yes   R1=Yes   R2=Yes   R3=Yes
   Joint=53   U1=No   U2=No   U3=Yes   R1=Yes   R2=Yes   R3=Yes
   Joint=54   U1=No   U2=No   U3=Yes   R1=Yes   R2=Yes   R3=Yes
   Joint=55   U1=No   U2=No   U3=Yes   R1=Yes   R2=Yes   R3=Yes
 
TABLE:  "LOAD CASE DEFINITIONS"
   Case=DEAD   Type=LinStatic   InitialCond=Zero   DesTypeOpt="Prog Det"   DesignType=Dead   DesActOpt="Prog Det"   DesignAct=Non-Composite   AutoType=None   RunCase=Yes   GUID=9e5ea278-fac4-4b2b-8533-42099d7df736
   Case=MODAL   Type=LinModal   InitialCond=Zero   DesTypeOpt="Prog Det"   DesignType=Other   DesActOpt="Prog Det"   DesignAct=Other   AutoType=None   RunCase=Yes   GUID=ad8ba1e3-90bb-4a8c-bdc5-3c847ef081ae
 
TABLE:  "LOAD PATTERN DEFINITIONS"
   LoadPat=DEAD   DesignType=Dead   SelfWtMult=1   GUID=4632cf25-e190-4e7d-be44-20a5565c3fcf
 
TABLE:  "MASS SOURCE"
   MassSource=MSSSRC1   Elements=Yes   Masses=Yes   Loads=No   IsDefault=Yes
 
TABLE:  "MATERIAL PROPERTIES 01 - GENERAL"
   Material=4000Psi   Type=Concrete   Grade="f'c 4000 psi"   SymType=Isotropic   TempDepend=No   Color=Red   GUID=325f028a-1a15-4c77-8ecc-9aabb1cd67ae   Notes="Customary f'c 4000 psi 1/17/2026 3:49:58 PM"
   Material=A615Gr60   Type=Rebar   Grade="Grade 60"   SymType=Uniaxial   TempDepend=No   Color=Gray8Dark   GUID=1b534bf9-e7cc-4fde-93d0-98d5ec6ebf42   Notes="ASTM A615 Grade 60 1/17/2026 3:50:01 PM"
   Material=A992Fy50   Type=Steel   Grade="Grade 50"   SymType=Isotropic   TempDepend=No   Color=Cyan   Notes="ASTM A992 Grade 50 1/17/2026 3:49:58 PM"
   Material=CONCRETO   Type=Steel   SymType=Isotropic   TempDepend=No   Color=Magenta
 
TABLE:  "MATERIAL PROPERTIES 02 - BASIC MECHANICAL PROPERTIES"
   Material=4000Psi   UnitWeight=23.5631216161854   UnitMass=2.40276960558926   E1=24855578.0600518   G12=10356490.8583549   U12=0.2   A1=9.89999952793124E-06
   Material=A615Gr60   UnitWeight=76.9728639422648   UnitMass=7.84904737995992   E1=199947978.795958   A1=1.16999994421006E-05
   Material=A992Fy50   UnitWeight=76.9728639422648   UnitMass=7.84904737995992   E1=199947978.795958   G12=76903068.767676   U12=0.3   A1=1.16999994421006E-05
   Material=CONCRETO   UnitWeight=76.9728639422648   UnitMass=7.84904737995992   E1=35000000   G12=15217391.3043478   U12=0.15   A1=0
 
TABLE:  "MATERIAL PROPERTIES 03A - STEEL DATA"
   Material=A992Fy50   Fy=344737.894475789   Fu=448159.262818526   EffFy=379211.683923368   EffFu=492975.189100378   SSCurveOpt=Simple   SSHysType=Kinematic   SHard=0.015   SMax=0.11   SRup=0.17   FinalSlope=-0.1   CoupModType="Von Mises"
   Material=CONCRETO   Fy=344737.894475789   Fu=448159.262818526   EffFy=379211.683923368   EffFu=492975.189100378   SSCurveOpt=Simple   SSHysType=Kinematic   SHard=0.015   SMax=0.11   SRup=0.17   FinalSlope=-0.1   CoupModType="Von Mises"
 
TABLE:  "MATERIAL PROPERTIES 03B - CONCRETE DATA"
   Material=4000Psi   Fc=27579.0315580631   eFc=27579.0315580631   LtWtConc=No   SSCurveOpt=Mander   SSHysType=Takeda   SFc=0.00221914   SCap=0.005   FinalSlope=-0.1   FAngle=0   DAngle=0   CoupModType="Modified Darwin-Pecknold"
 
TABLE:  "MATERIAL PROPERTIES 03E - REBAR DATA"
   Material=A615Gr60   Fy=413685.473370947   Fu=620528.21005642   EffFy=455054.020708041   EffFu=682581.031062062   SSCurveOpt=Simple   SSHysType=Kinematic   SHard=0.01   SCap=0.09   FinalSlope=-0.1   UseCTDef=No   CoupModType="Von Mises"
 
TABLE:  "MATERIAL PROPERTIES 03J - COUPLED NONLINEAR VON MISES DATA"
   Material=A615Gr60   YieldStress=455054.020708041   LinIsoHard=No   LinKinHard=No   NLIsoSaHard=No
   Material=A992Fy50   YieldStress=379211.683923368   LinIsoHard=No   LinKinHard=No   NLIsoSaHard=No
   Material=CONCRETO   YieldStress=379211.683923368   LinIsoHard=No   LinKinHard=No   NLIsoSaHard=No
 
TABLE:  "MATERIAL PROPERTIES 06 - DAMPING PARAMETERS"
   Material=4000Psi   ModalRatio=0   VisMass=0   VisStiff=0   HysMass=0   HysStiff=0
   Material=A615Gr60   ModalRatio=0   VisMass=0   VisStiff=0   HysMass=0   HysStiff=0
   Material=A992Fy50   ModalRatio=0   VisMass=0   VisStiff=0   HysMass=0   HysStiff=0
   Material=CONCRETO   ModalRatio=0   VisMass=0   VisStiff=0   HysMass=0   HysStiff=0
 
TABLE:  "MATERIAL PROPERTIES 09 - ACCEPTANCE CRITERIA"
   Material=4000Psi   IOTens=0.01   LSTens=0.02   CPTens=0.05   IOComp=-0.003   LSComp=-0.006   CPComp=-0.015   IgnoreTens=Yes
   Material=A615Gr60   IOTens=0.01   LSTens=0.02   CPTens=0.05   IOComp=-0.005   LSComp=-0.01   CPComp=-0.02
   Material=A992Fy50   IOTens=0.01   LSTens=0.02   CPTens=0.05   IOComp=-0.005   LSComp=-0.01   CPComp=-0.02
   Material=CONCRETO   IOTens=0.01   LSTens=0.02   CPTens=0.05   IOComp=-0.005   LSComp=-0.01   CPComp=-0.02
 
TABLE:  "OPTIONS - COLORS - DISPLAY"
   DeviceType=Screen   Points=Blue   LinesFrame=Blue   LinesFrmDL=Blue   LinesCable=Green   LinesTendon=Green   SpringLinks=Green   Restraints=Green   Releases=Green   Axes=Cyan   Text=Black   ShadowLines=Gray8Dark   GuideLines=Gray8Dark _
        Highlight=Red   Selection=10504778   AreaFillBot=Red   AreaFillTop=16744703   AreaFillSd=Red   AreaEdge=DarkRed   SolidF1=Red   SolidF2=Blue   SolidF3=Green   SolidF4=Yellow   SolidF5=White   SolidF6=Cyan   SolidEdge=DarkRed _
        Floor=Gray4   Background=White   BGLowLeft=White   BGLowRight=White   BGUpRight=White   Darkness=0.5
   DeviceType=Printer   Points=Gray8Dark   LinesFrame=Black   LinesFrmDL=Gray4   LinesCable=Black   LinesTendon=Black   SpringLinks=Gray8Dark   Restraints=Gray8Dark   Releases=Gray4   Axes=Black   Text=Black   ShadowLines=Gray4 _
        GuideLines=Gray4   Highlight=Black   Selection=Black   AreaFillBot=Gray4   AreaFillTop=Gray8Dark   AreaFillSd=Gray4   AreaEdge=Black   SolidF1=Gray1Light   SolidF2=Gray2   SolidF3=Gray3   SolidF4=Gray4   SolidF5=Gray5 _
        SolidF6=Gray6   SolidEdge=Black   Floor=Gray4   Background=White   BGLowLeft=White   BGLowRight=White   BGUpRight=White   Darkness=0.5
   DeviceType="Color Printer"   Points=Blue   LinesFrame=Blue   LinesFrmDL=Blue   LinesCable=Green   LinesTendon=Green   SpringLinks=Green   Restraints=Green   Releases=Green   Axes=Cyan   Text=Black   ShadowLines=Gray8Dark _
        GuideLines=Gray8Dark   Highlight=Red   Selection=10504778   AreaFillBot=Red   AreaFillTop=16744703   AreaFillSd=Red   AreaEdge=DarkRed   SolidF1=Red   SolidF2=Blue   SolidF3=Green   SolidF4=Yellow   SolidF5=White   SolidF6=Cyan _
        SolidEdge=DarkRed   Floor=Gray4   Background=White   BGLowLeft=White   BGLowRight=White   BGUpRight=White   Darkness=0.5
 
TABLE:  "OPTIONS - COLORS - OUTPUT"
   DeviceType=Screen   Contour1=13107400   Contour2=6553828   Contour3=Red   Contour4=16639   Contour5=Orange   Contour6=43775   Contour7=54527   Contour8=Yellow   Contour9=65408   Contour10=Green   Contour11=8453888   Contour12=Cyan _
        Contour13=16755200   Contour14=16733440   Contour15=Blue   Transpare=0   Ratio1=Cyan   Ratio2=Green   Ratio3=Yellow   Ratio4=Orange   Ratio5=Red   RatioNotD=Gray4   RatioNotC=Red   RatioVal1=0.5   RatioVal2=0.7   RatioVal3=0.9 _
        RatioVal4=1   DFillPos=Blue   DFillNeg=Red   DFillRPos=Green   DFillRNeg=Green
   DeviceType=Printer   Contour1=Black   Contour2=3158064   Contour3=4210752   Contour4=5263440   Contour5=6316128   Contour6=7368816   Contour7=Gray8Dark   Contour8=Gray7   Contour9=Gray6   Contour10=Gray5   Contour11=Gray4 _
        Contour12=Gray3   Contour13=Gray2   Contour14=Gray1Light   Contour15=White   Transpare=0   Ratio1=Gray2   Ratio2=Gray4   Ratio3=Gray8Dark   Ratio4=4210752   Ratio5=Black   RatioNotD=Gray4   RatioNotC=Black   RatioVal1=0.5 _
        RatioVal2=0.7   RatioVal3=0.9   RatioVal4=1   DFillPos=Gray8Dark   DFillNeg=Gray8Dark   DFillRPos=4210752   DFillRNeg=4210752
   DeviceType="Color Printer"   Contour1=13107400   Contour2=6553828   Contour3=Red   Contour4=16639   Contour5=Orange   Contour6=43775   Contour7=54527   Contour8=Yellow   Contour9=65408   Contour10=Green   Contour11=8453888 _
        Contour12=Cyan   Contour13=16755200   Contour14=16733440   Contour15=Blue   Transpare=0   Ratio1=Cyan   Ratio2=Green   Ratio3=Yellow   Ratio4=Orange   Ratio5=Red   RatioNotD=Gray4   RatioNotC=Red   RatioVal1=0.5   RatioVal2=0.7 _
        RatioVal3=0.9   RatioVal4=1   DFillPos=Blue   DFillNeg=Red   DFillRPos=Green   DFillRNeg=Green
 
TABLE:  "PREFERENCES - ALUMINUM DESIGN - AA 2015"
   THDesign=Envelopes   SRatioLimit=1   Provision=LRFD   LatFact=1.33333333333333   UseLatFact=No   Bridge=No   PhiTy=0.9   PhiTr=0.75   PhiC=0.9   PhiBo=0.9   PhiBr=0.75   PhiVo=0.9   PhiVr=0.75
 
TABLE:  "PREFERENCES - COLD FORMED DESIGN - AISI-16"
   THDesign=Envelopes   FrameType="Braced Frame"   SRatioLimit=1   SOMethod="General 2nd Order"   Provision=LRFD   LatFact=1.33333333333333   UseLatFact=No   PhiTy=0.9   PhiTr=0.75   PhiC=0.85   PhiB=0.9   PhiBPipe=0.95   PhiV=0.95
 
TABLE:  "PREFERENCES - CONCRETE DESIGN - ACI 318-19"
   THDesign=Envelopes   NumCurves=24   NumPoints=11   MinEccen=Yes   BCCDesign=Yes   IgnoreBPu=Yes   CTorsion=Yes   PatLLF=0.75   UFLimit=0.95   SeisCat=D   Rho=1   Sds=0.5   PhiT=0.9   PhiCTied=0.65   PhiCSpiral=0.75   PhiV=0.75 _
        PhiVSeismic=0.6   PhiVJoint=0.85   TanTheta=1
 
TABLE:  "PREFERENCES - CONCRETE SHELL DESIGN - EUROCODE 2-2004"
   Country="CEN Default"   GammaS=1.15   GammaC=1.5   AlphaCC=1   AlphaCT=1   CrackCond="Program Determined"   ShrDesMet="Method 1"   CotTheta=1
 
TABLE:  "PREFERENCES - DIMENSIONAL"
   MergeTol=0.001   FineGrid=0.25   Nudge=0.25   SelectTol=3   SnapTol=12   SLineThick=1   PLineThick=4   MaxFont=8   MinFont=3   AutoZoom=10   ShrinkFact=70   TextFileLen=240
 
TABLE:  "PREFERENCES - STEEL DESIGN - AISC 360-16"
   THDesign=Envelopes   FrameType=SMF   PatLLF=0.75   SRatioLimit=0.95   MaxIter=1   SDC=D   SeisCode=No   SeisLoad=No   ImpFactor=1   SystemRho=1   SystemSds=0.5   SystemR=8   SystemCd=5.5   Omega0=3   Provision=LRFD _
        AMethod="Direct Analysis"   SOMethod="General 2nd Order"   SRMethod="Tau-b Fixed"   NLCoeff=0.002   PhiB=0.9   PhiC=0.9   PhiTY=0.9   PhiTF=0.75   PhiV=0.9   PhiVRolledI=1   PhiVT=0.9   PlugWeld=Yes   HSSWelding=ERW   HSSReduceT=No _
        CheckDefl=No   DLRat=120   SDLAndLLRat=120   LLRat=360   TotalRat=240   NetRat=240
 
TABLE:  "PROGRAM CONTROL"
   ProgramName=SAP2000   Version=24.1.0   CurrUnits="KN, m, C"   SteelCode="AISC 360-16"   ConcCode="ACI 318-19"   AlumCode="AA 2015"   ColdCode=AISI-16   RegenHinge=Yes
 
TABLE:  "PROJECT INFORMATION"
   Item="Company Name"
   Item="Client Name"
   Item="Project Name"
   Item="Project Number"
   Item="Model Name"
   Item="Model Description"
   Item="Revision Number"
   Item="Frame Type"
   Item=Engineer
   Item=Checker
   Item=Supervisor
   Item="Issue Code"
   Item="Design Code"
 
TABLE:  "REBAR SIZES"
   RebarID=#2   Area=3.2258E-05   Diameter=0.00635
   RebarID=#3   Area=7.09675996154547E-05   Diameter=0.009525
   RebarID=#4   Area=0.000129032001922727   Diameter=0.0127
   RebarID=#5   Area=0.000199999601538181   Diameter=0.015875
   RebarID=#6   Area=0.000283870398461819   Diameter=0.01905
   RebarID=#7   Area=0.000387096015381813   Diameter=0.022225
   RebarID=#8   Area=0.000509676413843632   Diameter=0.0254
   RebarID=#9   Area=0.00064516   Diameter=0.0286512005329132
   RebarID=#10   Area=0.00081935318769455   Diameter=0.0322579995155334
   RebarID=#11   Area=0.00100644956308365   Diameter=0.0358139991521835
   RebarID=#14   Area=0.00145161   Diameter=0.0430021989583969
   RebarID=#18   Area=0.00258064   Diameter=0.0573277992248535
   RebarID=10M   Area=0.000100000002655387   Diameter=0.011300000667572
   RebarID=15M   Area=0.000200000005310774   Diameter=0.0159999999403954
   RebarID=20M   Area=0.000300000017579794   Diameter=0.0194999997854233
   RebarID=25M   Area=0.000500000022890568   Diameter=0.0252000016093254
   RebarID=30M   Area=0.000700000008974075   Diameter=0.0299000008821487
   RebarID=35M   Area=0.00100000004578114   Diameter=0.0357000011444092
   RebarID=45M   Area=0.00150000010712624   Diameter=0.0437000003576279
   RebarID=55M   Area=0.00250000007599831   Diameter=0.0564000033855438
   RebarID=6d   Area=2.83000004149973E-05   Diameter=0.006000000166893
   RebarID=8d   Area=5.02999995571375E-05   Diameter=0.00799999997019768
   RebarID=10d   Area=7.85000013634562E-05   Diameter=0.00999999977350235
   RebarID=12d   Area=0.000113000009249449   Diameter=0.012000000333786
   RebarID=14d   Area=0.000154000010818839   Diameter=0.0140000008940697
   RebarID=16d   Area=0.000201000015431643   Diameter=0.0159999999403954
   RebarID=20d   Area=0.000314000005453825   Diameter=0.0199999995470047
   RebarID=25d   Area=0.000491000008711815   Diameter=0.0250000001907349
   RebarID=26d   Area=0.000531000029001236   Diameter=0.0259999997138977
   RebarID=28d   Area=0.000616000043275356   Diameter=0.0280000017881393
   RebarID=N12   Area=0.000113000009249449   Diameter=0.012000000333786
   RebarID=N16   Area=0.000201000015431643   Diameter=0.0159999999403954
   RebarID=N20   Area=0.000314000005453825   Diameter=0.0199999995470047
   RebarID=N24   Area=0.000452000036997795   Diameter=0.024000000667572
   RebarID=N28   Area=0.000616000043275356   Diameter=0.0280000017881393
   RebarID=N32   Area=0.00080400006172657   Diameter=0.0319999998807907
   RebarID=N36   Area=0.00102000001747131   Diameter=0.036000001001358
 
END TABLE DATA
