File C:\Users\j-b-j\Documents\Calcpad-7.5.7\SAP2000_Losa_v5.$2k was saved on m/d/yy at h:mm:ss
 
TABLE:  "ACTIVE DEGREES OF FREEDOM"
   UX=Yes   UY=Yes   UZ=Yes   RX=Yes   RY=Yes   RZ=Yes
 
TABLE:  "ANALYSIS OPTIONS"
   Solver=Advanced   SolverProc=Auto   Force32Bit=No   StiffCase=None   GeomMod=None   HingeOpt="In Elements"   NumAThreads=0   MaxFileSize=0   NumDThreads=0   NumRThreads=0   UseMMFiles="Program Determined"   AllowDiff=No
 
TABLE:  "AREA LOADS - UNIFORM"
   Area=E1   LoadPat=DEAD   CoordSys=Local   Dir=3   UnifLoad=-0.00145037725185479
   Area=E2   LoadPat=DEAD   CoordSys=Local   Dir=3   UnifLoad=-0.00145037725185479
   Area=E3   LoadPat=DEAD   CoordSys=Local   Dir=3   UnifLoad=-0.00145037725185479
   Area=E4   LoadPat=DEAD   CoordSys=Local   Dir=3   UnifLoad=-0.00145037725185479
   Area=E5   LoadPat=DEAD   CoordSys=Local   Dir=3   UnifLoad=-0.00145037725185479
   Area=E6   LoadPat=DEAD   CoordSys=Local   Dir=3   UnifLoad=-0.00145037725185479
   Area=E7   LoadPat=DEAD   CoordSys=Local   Dir=3   UnifLoad=-0.00145037725185479
   Area=E8   LoadPat=DEAD   CoordSys=Local   Dir=3   UnifLoad=-0.00145037725185479
   Area=E9   LoadPat=DEAD   CoordSys=Local   Dir=3   UnifLoad=-0.00145037725185479
   Area=E10   LoadPat=DEAD   CoordSys=Local   Dir=3   UnifLoad=-0.00145037725185479
   Area=E11   LoadPat=DEAD   CoordSys=Local   Dir=3   UnifLoad=-0.00145037725185479
   Area=E12   LoadPat=DEAD   CoordSys=Local   Dir=3   UnifLoad=-0.00145037725185479
   Area=E13   LoadPat=DEAD   CoordSys=Local   Dir=3   UnifLoad=-0.00145037725185479
   Area=E14   LoadPat=DEAD   CoordSys=Local   Dir=3   UnifLoad=-0.00145037725185479
   Area=E15   LoadPat=DEAD   CoordSys=Local   Dir=3   UnifLoad=-0.00145037725185479
   Area=E16   LoadPat=DEAD   CoordSys=Local   Dir=3   UnifLoad=-0.00145037725185479
   Area=E17   LoadPat=DEAD   CoordSys=Local   Dir=3   UnifLoad=-0.00145037725185479
   Area=E18   LoadPat=DEAD   CoordSys=Local   Dir=3   UnifLoad=-0.00145037725185479
   Area=E19   LoadPat=DEAD   CoordSys=Local   Dir=3   UnifLoad=-0.00145037725185479
   Area=E20   LoadPat=DEAD   CoordSys=Local   Dir=3   UnifLoad=-0.00145037725185479
# ... 4 like lines cut
 
TABLE:  "AREA SECTION ASSIGNMENTS"
   Area=E1   Section=LOSA   MatProp=Default
   Area=E2   Section=LOSA   MatProp=Default
   Area=E3   Section=LOSA   MatProp=Default
   Area=E4   Section=LOSA   MatProp=Default
   Area=E5   Section=LOSA   MatProp=Default
   Area=E6   Section=LOSA   MatProp=Default
   Area=E7   Section=LOSA   MatProp=Default
   Area=E8   Section=LOSA   MatProp=Default
   Area=E9   Section=LOSA   MatProp=Default
   Area=E10   Section=LOSA   MatProp=Default
   Area=E11   Section=LOSA   MatProp=Default
   Area=E12   Section=LOSA   MatProp=Default
   Area=E13   Section=LOSA   MatProp=Default
   Area=E14   Section=LOSA   MatProp=Default
   Area=E15   Section=LOSA   MatProp=Default
   Area=E16   Section=LOSA   MatProp=Default
   Area=E17   Section=LOSA   MatProp=Default
   Area=E18   Section=LOSA   MatProp=Default
   Area=E19   Section=LOSA   MatProp=Default
   Area=E20   Section=LOSA   MatProp=Default
# ... 4 like lines cut
 
TABLE:  "AREA SECTION PROPERTIES"
   Section=LOSA   Material=CONC   MatAngle=0   AreaType=Shell   Type=Shell-Thin   DrillDOF=No   Thickness=3.93700787401575   BendThick=3.93700787401575   Color=Black   F11Mod=1   F22Mod=1   F12Mod=1   M11Mod=1   M22Mod=1   M12Mod=1 _
        V13Mod=1   V23Mod=1   MMod=1   WMod=1
 
TABLE:  "AREA SECTION PROPERTY DESIGN PARAMETERS"
   Section=LOSA   RebarMat=None   RebarOpt=Default
 
TABLE:  "AREA SECTION PROPERTY - TIME DEPENDENT"
   Section=LOSA   TypeSize=Auto   AutoSFSize=1
 
TABLE:  "AUTO WAVE 3 - WAVE CHARACTERISTICS - GENERAL"
   WaveChar=Default   WaveType="From Theory"   KinFactor=1   SWaterDepth=1800   WaveHeight=720   WavePeriod=12   WaveTheory=Linear
 
TABLE:  "CASE - MODAL 1 - GENERAL"
   Case=MODAL   ModeType=Eigen   MaxNumModes=12   MinNumModes=1   EigenShift=0   EigenCutoff=0   EigenTol=1E-09   AutoShift=Yes
 
TABLE:  "CASE - STATIC 1 - LOAD ASSIGNMENTS"
   Case=DEAD   LoadType="Load pattern"   LoadName=DEAD   LoadSF=1
 
TABLE:  "CONNECTIVITY - AREA"
   Area=E1   Joint1=1   Joint2=6   Joint3=7   Joint4=2   GUID=82ad3fb2-ac1e-4bb7-9fe5-639308c15d68
   Area=E2   Joint1=2   Joint2=7   Joint3=8   Joint4=3   GUID=8b63a40e-5174-4733-937c-bc624179117a
   Area=E3   Joint1=3   Joint2=8   Joint3=9   Joint4=4   GUID=eb8949d6-df53-48ee-a4d0-c132bf684347
   Area=E4   Joint1=4   Joint2=9   Joint3=10   Joint4=5   GUID=ffff1bed-3fd5-428f-b511-57060eb18255
   Area=E5   Joint1=6   Joint2=11   Joint3=12   Joint4=7   GUID=41c01d2d-6d7e-4814-adf3-6b5bbaeadadf
   Area=E6   Joint1=7   Joint2=12   Joint3=13   Joint4=8   GUID=c69a0cbe-e716-45d1-a37f-247e7ffff235
   Area=E7   Joint1=8   Joint2=13   Joint3=14   Joint4=9   GUID=9c09d5d8-25ca-4666-8001-4262aad35d22
   Area=E8   Joint1=9   Joint2=14   Joint3=15   Joint4=10   GUID=d716b942-99e4-4a22-9dc5-528eea4b21f7
   Area=E9   Joint1=11   Joint2=16   Joint3=17   Joint4=12   GUID=d6bf580e-d2dd-43d5-9f8c-df64ce436949
   Area=E10   Joint1=12   Joint2=17   Joint3=18   Joint4=13   GUID=13fa3e35-9efa-4a6b-9755-a4bcdb13e083
   Area=E11   Joint1=13   Joint2=18   Joint3=19   Joint4=14   GUID=e7920697-dc0e-4d82-a8a2-e2ecfa8286c7
   Area=E12   Joint1=14   Joint2=19   Joint3=20   Joint4=15   GUID=251e45f0-0e17-4898-b258-4d069d7cc517
   Area=E13   Joint1=16   Joint2=21   Joint3=22   Joint4=17   GUID=99244a37-60af-4d52-9d5a-9e2b66fbe5eb
   Area=E14   Joint1=17   Joint2=22   Joint3=23   Joint4=18   GUID=00c249be-5827-4565-9d7b-ec40e10defc2
   Area=E15   Joint1=18   Joint2=23   Joint3=24   Joint4=19   GUID=049101ed-9fe7-442e-9513-21d018700d49
   Area=E16   Joint1=19   Joint2=24   Joint3=25   Joint4=20   GUID=8bc74d48-7ab8-4fc1-8605-f0c6cbb4ee34
   Area=E17   Joint1=21   Joint2=26   Joint3=27   Joint4=22   GUID=8a554d79-17db-42b0-8ba8-a1c557f393e9
   Area=E18   Joint1=22   Joint2=27   Joint3=28   Joint4=23   GUID=b1aeca71-f786-49bc-ad49-a0a46cfbfd18
   Area=E19   Joint1=23   Joint2=28   Joint3=29   Joint4=24   GUID=ce1c0f46-65b6-4c2d-93ea-7063ddfbb528
   Area=E20   Joint1=24   Joint2=29   Joint3=30   Joint4=25   GUID=963fe44b-9010-4091-be19-ad30dccbf1f2
   Area=E21   Joint1=26   Joint2=31   Joint3=32   Joint4=27   GUID=61b1eb2e-8f06-4295-90a9-993f2f7677be
   Area=E22   Joint1=27   Joint2=32   Joint3=33   Joint4=28   GUID=c0f06460-18b6-4c24-abd9-9f1c0a2cb674
   Area=E23   Joint1=28   Joint2=33   Joint3=34   Joint4=29   GUID=937d6de6-8178-4ebd-b4e1-bbac501ae3a6
   Area=E24   Joint1=29   Joint2=34   Joint3=35   Joint4=30   GUID=59ec42fa-49cb-46ff-8f79-1bf24f3d839f
 
TABLE:  "COORDINATE SYSTEMS"
   Name=GLOBAL   Type=Cartesian   X=0   Y=0   Z=0   AboutZ=0   AboutY=0   AboutX=0
 
TABLE:  "DATABASE DOCUMENTATION"
 
TABLE:  "DATABASE FORMAT TYPES"
   UnitsCurr=Yes   OverrideE=No
 
TABLE:  "FUNCTION - PLOT FUNCTIONS"
   PlotFunc="Input Energy"   Type=Energy   Component=Input   Mode=All
 
TABLE:  "FUNCTION - POWER SPECTRAL DENSITY - USER"
   Name=UNIFPSD   Frequency=0   Value=1
   Name=UNIFPSD   Frequency=1   Value=1
 
TABLE:  "FUNCTION - RESPONSE SPECTRUM - USER"
   Name=UNIFRS   Period=0   Accel=1   FuncDamp=0.05
   Name=UNIFRS   Period=1   Accel=1
 
TABLE:  "FUNCTION - STEADY STATE - USER"
   Name=UNIFSS   Frequency=0   Value=1
   Name=UNIFSS   Frequency=1   Value=1
 
TABLE:  "FUNCTION - TIME HISTORY - USER"
   Name=RAMPTH   Time=0   Value=0
   Name=RAMPTH   Time=1   Value=1
   Name=RAMPTH   Time=4   Value=1
   Name=UNIFTH   Time=0   Value=1
   Name=UNIFTH   Time=1   Value=1
 
TABLE:  "GROUPS 1 - DEFINITIONS"
   GroupName=ALL   Selection=Yes   SectionCut=Yes   Steel=Yes   Concrete=Yes   Aluminum=Yes   ColdFormed=Yes   Stage=Yes   Bridge=Yes   AutoSeismic=No   AutoWind=No   SelDesSteel=No   SelDesAlum=No   SelDesCold=No   MassWeight=Yes   Color=Red
 
TABLE:  "JOINT COORDINATES"
   Joint=1   CoordSys=GLOBAL   CoordType=Cartesian   XorR=0   Y=0   Z=0   SpecialJt=Yes   GUID=faf71005-7290-4b64-bcf4-3d8fcc026521
   Joint=2   CoordSys=GLOBAL   CoordType=Cartesian   XorR=0   Y=39.3700787401575   Z=0   SpecialJt=Yes   GUID=64b46e55-9062-426a-a4fc-bfaf0149a9d4
   Joint=3   CoordSys=GLOBAL   CoordType=Cartesian   XorR=0   Y=78.740157480315   Z=0   SpecialJt=Yes   GUID=f302a035-cccf-4b3e-b491-291bfd005c4e
   Joint=4   CoordSys=GLOBAL   CoordType=Cartesian   XorR=0   Y=118.110236220472   Z=0   SpecialJt=Yes   GUID=c8affdcd-82d8-4059-8a5e-43e6e82cac17
   Joint=5   CoordSys=GLOBAL   CoordType=Cartesian   XorR=0   Y=157.48031496063   Z=0   SpecialJt=Yes   GUID=2885c651-1d90-41e8-9399-229a28b61ccc
   Joint=6   CoordSys=GLOBAL   CoordType=Cartesian   XorR=39.3700787401575   Y=0   Z=0   SpecialJt=Yes   GUID=f27b2e02-967d-40b7-b73b-076026f60841
   Joint=7   CoordSys=GLOBAL   CoordType=Cartesian   XorR=39.3700787401575   Y=39.3700787401575   Z=0   SpecialJt=Yes   GUID=53376acf-bb6b-4805-bbab-da2a28ccc905
   Joint=8   CoordSys=GLOBAL   CoordType=Cartesian   XorR=39.3700787401575   Y=78.740157480315   Z=0   SpecialJt=Yes   GUID=87d0d532-f15b-46af-97d8-16c6df64a83c
   Joint=9   CoordSys=GLOBAL   CoordType=Cartesian   XorR=39.3700787401575   Y=118.110236220472   Z=0   SpecialJt=Yes   GUID=e14b4b3d-f744-46fb-911c-bf2d2ed56613
   Joint=10   CoordSys=GLOBAL   CoordType=Cartesian   XorR=39.3700787401575   Y=157.48031496063   Z=0   SpecialJt=Yes   GUID=e33ee4a9-5168-44dc-8b74-c4d372c25aab
   Joint=11   CoordSys=GLOBAL   CoordType=Cartesian   XorR=78.740157480315   Y=0   Z=0   SpecialJt=Yes   GUID=a51584bf-b6ab-443e-8a72-802237c2744f
   Joint=12   CoordSys=GLOBAL   CoordType=Cartesian   XorR=78.740157480315   Y=39.3700787401575   Z=0   SpecialJt=Yes   GUID=c4d238e8-301a-4ee4-8c04-9937511002eb
   Joint=13   CoordSys=GLOBAL   CoordType=Cartesian   XorR=78.740157480315   Y=78.740157480315   Z=0   SpecialJt=Yes   GUID=036bd3ed-7c34-4790-a12c-dc218d5b505b
   Joint=14   CoordSys=GLOBAL   CoordType=Cartesian   XorR=78.740157480315   Y=118.110236220472   Z=0   SpecialJt=Yes   GUID=aa6ad710-73a7-4888-8c0c-8c0ab6d7eea8
   Joint=15   CoordSys=GLOBAL   CoordType=Cartesian   XorR=78.740157480315   Y=157.48031496063   Z=0   SpecialJt=Yes   GUID=f453a737-37d0-4e34-a9dd-5acccb1b7a97
   Joint=16   CoordSys=GLOBAL   CoordType=Cartesian   XorR=118.110236220472   Y=0   Z=0   SpecialJt=Yes   GUID=5e21ddc0-f52b-4f14-ba23-291e9a73b8f0
   Joint=17   CoordSys=GLOBAL   CoordType=Cartesian   XorR=118.110236220472   Y=39.3700787401575   Z=0   SpecialJt=Yes   GUID=0bb0d84d-160f-4986-b372-03846cb649c2
   Joint=18   CoordSys=GLOBAL   CoordType=Cartesian   XorR=118.110236220472   Y=78.740157480315   Z=0   SpecialJt=Yes   GUID=ca9418e3-315f-4c8e-8fbd-7e4d549b0fa8
   Joint=19   CoordSys=GLOBAL   CoordType=Cartesian   XorR=118.110236220472   Y=118.110236220472   Z=0   SpecialJt=Yes   GUID=23931cd9-90aa-4fb6-8a5b-1042f703580f
   Joint=20   CoordSys=GLOBAL   CoordType=Cartesian   XorR=118.110236220472   Y=157.48031496063   Z=0   SpecialJt=Yes   GUID=e0da1a56-6a13-4e8c-98f2-27a76340085c
   Joint=21   CoordSys=GLOBAL   CoordType=Cartesian   XorR=157.48031496063   Y=0   Z=0   SpecialJt=Yes   GUID=9941c141-ff89-4cfe-a9be-436669861c27
   Joint=22   CoordSys=GLOBAL   CoordType=Cartesian   XorR=157.48031496063   Y=39.3700787401575   Z=0   SpecialJt=Yes   GUID=c3f8eee0-d708-4e35-9d2e-b6c8b6ad2b98
   Joint=23   CoordSys=GLOBAL   CoordType=Cartesian   XorR=157.48031496063   Y=78.740157480315   Z=0   SpecialJt=Yes   GUID=581a1f5b-4382-44ca-84b3-766277e3d651
   Joint=24   CoordSys=GLOBAL   CoordType=Cartesian   XorR=157.48031496063   Y=118.110236220472   Z=0   SpecialJt=Yes   GUID=fcc1b228-47cb-48a3-85bb-bd6c4823cf02
   Joint=25   CoordSys=GLOBAL   CoordType=Cartesian   XorR=157.48031496063   Y=157.48031496063   Z=0   SpecialJt=Yes   GUID=a29933e7-af15-40dc-acb0-e9149a87fed5
   Joint=26   CoordSys=GLOBAL   CoordType=Cartesian   XorR=196.850393700787   Y=0   Z=0   SpecialJt=Yes   GUID=abc32cd1-12b3-48a9-9a2b-1ba940723b20
   Joint=27   CoordSys=GLOBAL   CoordType=Cartesian   XorR=196.850393700787   Y=39.3700787401575   Z=0   SpecialJt=Yes   GUID=f46a84f6-3938-4cb1-b433-2785620fb41a
   Joint=28   CoordSys=GLOBAL   CoordType=Cartesian   XorR=196.850393700787   Y=78.740157480315   Z=0   SpecialJt=Yes   GUID=ef14e3c6-3e2e-48cc-aad8-abde3d89af17
   Joint=29   CoordSys=GLOBAL   CoordType=Cartesian   XorR=196.850393700787   Y=118.110236220472   Z=0   SpecialJt=Yes   GUID=cde6ba3c-e342-47d9-ae1e-6eb89d46a0ea
   Joint=30   CoordSys=GLOBAL   CoordType=Cartesian   XorR=196.850393700787   Y=157.48031496063   Z=0   SpecialJt=Yes   GUID=0c793bd5-5495-4e96-a6b7-ae8552ae0f86
   Joint=31   CoordSys=GLOBAL   CoordType=Cartesian   XorR=236.220472440945   Y=0   Z=0   SpecialJt=Yes   GUID=025e9711-5978-4242-b7d5-a22a984765ad
   Joint=32   CoordSys=GLOBAL   CoordType=Cartesian   XorR=236.220472440945   Y=39.3700787401575   Z=0   SpecialJt=Yes   GUID=a243995a-493f-4b0b-aa47-51fcc4779ab7
   Joint=33   CoordSys=GLOBAL   CoordType=Cartesian   XorR=236.220472440945   Y=78.740157480315   Z=0   SpecialJt=Yes   GUID=99268426-c3ef-4f74-8a96-ad16ae815b38
   Joint=34   CoordSys=GLOBAL   CoordType=Cartesian   XorR=236.220472440945   Y=118.110236220472   Z=0   SpecialJt=Yes   GUID=1329dbc4-2a7f-49ec-be62-8fa08e68fdd0
   Joint=35   CoordSys=GLOBAL   CoordType=Cartesian   XorR=236.220472440945   Y=157.48031496063   Z=0   SpecialJt=Yes   GUID=98e2cbcd-eb08-401a-874a-e0d06cfc243f
 
TABLE:  "JOINT PATTERN DEFINITIONS"
   Pattern=Default
 
TABLE:  "JOINT RESTRAINT ASSIGNMENTS"
   Joint=1   U1=Yes   U2=Yes   U3=Yes   R1=No   R2=No   R3=No
   Joint=2   U1=No   U2=No   U3=Yes   R1=No   R2=No   R3=No
   Joint=3   U1=No   U2=No   U3=Yes   R1=No   R2=No   R3=No
   Joint=4   U1=No   U2=No   U3=Yes   R1=No   R2=No   R3=No
   Joint=5   U1=Yes   U2=No   U3=Yes   R1=No   R2=No   R3=No
   Joint=6   U1=No   U2=No   U3=Yes   R1=No   R2=No   R3=No
   Joint=10   U1=No   U2=No   U3=Yes   R1=No   R2=No   R3=No
   Joint=11   U1=No   U2=No   U3=Yes   R1=No   R2=No   R3=No
   Joint=15   U1=No   U2=No   U3=Yes   R1=No   R2=No   R3=No
   Joint=16   U1=No   U2=No   U3=Yes   R1=No   R2=No   R3=No
   Joint=20   U1=No   U2=No   U3=Yes   R1=No   R2=No   R3=No
   Joint=21   U1=No   U2=No   U3=Yes   R1=No   R2=No   R3=No
   Joint=25   U1=No   U2=No   U3=Yes   R1=No   R2=No   R3=No
   Joint=26   U1=No   U2=No   U3=Yes   R1=No   R2=No   R3=No
   Joint=30   U1=No   U2=No   U3=Yes   R1=No   R2=No   R3=No
   Joint=31   U1=No   U2=Yes   U3=Yes   R1=No   R2=No   R3=No
   Joint=32   U1=No   U2=No   U3=Yes   R1=No   R2=No   R3=No
   Joint=33   U1=No   U2=No   U3=Yes   R1=No   R2=No   R3=No
   Joint=34   U1=No   U2=No   U3=Yes   R1=No   R2=No   R3=No
   Joint=35   U1=No   U2=No   U3=Yes   R1=No   R2=No   R3=No
 
TABLE:  "LOAD CASE DEFINITIONS"
   Case=DEAD   Type=LinStatic   InitialCond=Zero   DesTypeOpt="Prog Det"   DesignType=Dead   DesActOpt="Prog Det"   DesignAct=Non-Composite   AutoType=None   RunCase=Yes   GUID=bd28db3f-5cda-4b5f-8cb5-7abcae71bdc8
   Case=MODAL   Type=LinModal   InitialCond=Zero   DesTypeOpt="Prog Det"   DesignType=Other   DesActOpt="Prog Det"   DesignAct=Other   AutoType=None   RunCase=Yes   GUID=2bfacb88-d9b3-40e5-95a0-44583e22e7b8
 
TABLE:  "LOAD PATTERN DEFINITIONS"
   LoadPat=DEAD   DesignType=Dead   SelfWtMult=1   GUID=6e04fcd5-7226-4276-81e6-055ff82a3960
 
TABLE:  "MASS SOURCE"
   MassSource=MSSSRC1   Elements=Yes   Masses=Yes   Loads=No   IsDefault=Yes
 
TABLE:  "MATERIAL PROPERTIES 01 - GENERAL"
   Material=4000Psi   Type=Concrete   Grade="f'c 4000 psi"   SymType=Isotropic   TempDepend=No   Color=Green   GUID=ca58c422-b19c-410d-a774-962f3b17789d   Notes="Customary f'c 4000 psi 1/17/2026 11:03:56 AM"
   Material=A992Fy50   Type=Steel   Grade="Grade 50"   SymType=Isotropic   TempDepend=No   Color=Blue   Notes="ASTM A992 Grade 50 1/17/2026 11:03:56 AM"
   Material=CONC   Type=Concrete   SymType=Isotropic   TempDepend=No   Color=Cyan
 
TABLE:  "MATERIAL PROPERTIES 02 - BASIC MECHANICAL PROPERTIES"
   Material=4000Psi   UnitWeight=8.680555556E-05   UnitMass=2.248332521E-07   E1=3604.9965   G12=1502.081875   U12=0.2   A1=5.5E-06
   Material=A992Fy50   UnitWeight=0.000283564814814815   UnitMass=7.34455290352564E-07   E1=29000   G12=11153.8461538462   U12=0.3   A1=6.5E-06
   Material=CONC   UnitWeight=8.68055555555556E-05   UnitMass=2.24833252148744E-07   E1=5076.32038149175   G12=2207.09581803989   U12=0.15   A1=0
 
TABLE:  "MATERIAL PROPERTIES 03A - STEEL DATA"
   Material=A992Fy50   Fy=50   Fu=65   EffFy=55   EffFu=71.5   SSCurveOpt=Simple   SSHysType=Kinematic   SHard=0.015   SMax=0.11   SRup=0.17   FinalSlope=-0.1   CoupModType="Von Mises"
 
TABLE:  "MATERIAL PROPERTIES 03B - CONCRETE DATA"
   Material=4000Psi   Fc=4   eFc=4   LtWtConc=No   SSCurveOpt=Mander   SSHysType=Takeda   SFc=0.00221914   SCap=0.005   FinalSlope=-0.1   FAngle=0   DAngle=0   CoupModType="Modified Darwin-Pecknold"
   Material=CONC   Fc=4   eFc=4   LtWtConc=No   SSCurveOpt=Mander   SSHysType=Takeda   SFc=0.00221914221766202   SCap=0.005   FinalSlope=-0.1   FAngle=0   DAngle=0   CoupModType="Modified Darwin-Pecknold"
 
TABLE:  "MATERIAL PROPERTIES 03J - COUPLED NONLINEAR VON MISES DATA"
   Material=A992Fy50   YieldStress=55   LinIsoHard=No   LinKinHard=No   NLIsoSaHard=No
 
TABLE:  "MATERIAL PROPERTIES 06 - DAMPING PARAMETERS"
   Material=4000Psi   ModalRatio=0   VisMass=0   VisStiff=0   HysMass=0   HysStiff=0
   Material=A992Fy50   ModalRatio=0   VisMass=0   VisStiff=0   HysMass=0   HysStiff=0
   Material=CONC   ModalRatio=0   VisMass=0   VisStiff=0   HysMass=0   HysStiff=0
 
TABLE:  "MATERIAL PROPERTIES 09 - ACCEPTANCE CRITERIA"
   Material=4000Psi   IOTens=0.01   LSTens=0.02   CPTens=0.05   IOComp=-0.003   LSComp=-0.006   CPComp=-0.015   IgnoreTens=Yes
   Material=A992Fy50   IOTens=0.01   LSTens=0.02   CPTens=0.05   IOComp=-0.005   LSComp=-0.01   CPComp=-0.02
   Material=CONC   IOTens=0.01   LSTens=0.02   CPTens=0.05   IOComp=-0.003   LSComp=-0.006   CPComp=-0.015   IgnoreTens=Yes
 
TABLE:  "OPTIONS - COLORS - DISPLAY"
   DeviceType=Screen   Points=Blue   LinesFrame=Blue   LinesFrmDL=Blue   LinesCable=Green   LinesTendon=Green   SpringLinks=Green   Restraints=Green   Releases=Green   Axes=Cyan   Text=Black   ShadowLines=Gray8Dark   GuideLines=Gray8Dark _
        Highlight=Red   Selection=10504778   AreaFillBot=Red   AreaFillTop=16744703   AreaFillSd=Red   AreaEdge=DarkRed   SolidF1=Red   SolidF2=Blue   SolidF3=Green   SolidF4=Yellow   SolidF5=White   SolidF6=Cyan   SolidEdge=DarkRed _
        Floor=Gray4   Background=White   BGLowLeft=White   BGLowRight=White   BGUpRight=White   Darkness=0.5
   DeviceType=Printer   Points=Gray8Dark   LinesFrame=Black   LinesFrmDL=Gray4   LinesCable=Black   LinesTendon=Black   SpringLinks=Gray8Dark   Restraints=Gray8Dark   Releases=Gray4   Axes=Black   Text=Black   ShadowLines=Gray4 _
        GuideLines=Gray4   Highlight=Black   Selection=Black   AreaFillBot=Gray4   AreaFillTop=Gray8Dark   AreaFillSd=Gray4   AreaEdge=Black   SolidF1=Gray1Light   SolidF2=Gray2   SolidF3=Gray3   SolidF4=Gray4   SolidF5=Gray5 _
        SolidF6=Gray6   SolidEdge=Black   Floor=Gray4   Background=White   BGLowLeft=White   BGLowRight=White   BGUpRight=White   Darkness=0.5
   DeviceType="Color Printer"   Points=Blue   LinesFrame=Blue   LinesFrmDL=Blue   LinesCable=Green   LinesTendon=Green   SpringLinks=Green   Restraints=Green   Releases=Green   Axes=Cyan   Text=Black   ShadowLines=Gray8Dark _
        GuideLines=Gray8Dark   Highlight=Red   Selection=10504778   AreaFillBot=Red   AreaFillTop=16744703   AreaFillSd=Red   AreaEdge=DarkRed   SolidF1=Red   SolidF2=Blue   SolidF3=Green   SolidF4=Yellow   SolidF5=White   SolidF6=Cyan _
        SolidEdge=DarkRed   Floor=Gray4   Background=White   BGLowLeft=White   BGLowRight=White   BGUpRight=White   Darkness=0.5
 
TABLE:  "OPTIONS - COLORS - OUTPUT"
   DeviceType=Screen   Contour1=13107400   Contour2=6553828   Contour3=Red   Contour4=16639   Contour5=Orange   Contour6=43775   Contour7=54527   Contour8=Yellow   Contour9=65408   Contour10=Green   Contour11=8453888   Contour12=Cyan _
        Contour13=16755200   Contour14=16733440   Contour15=Blue   Transpare=0   Ratio1=Cyan   Ratio2=Green   Ratio3=Yellow   Ratio4=Orange   Ratio5=Red   RatioNotD=Gray4   RatioNotC=Red   RatioVal1=0.5   RatioVal2=0.7   RatioVal3=0.9 _
        RatioVal4=1   DFillPos=Blue   DFillNeg=Red   DFillRPos=Green   DFillRNeg=Green
   DeviceType=Printer   Contour1=Black   Contour2=3158064   Contour3=4210752   Contour4=5263440   Contour5=6316128   Contour6=7368816   Contour7=Gray8Dark   Contour8=Gray7   Contour9=Gray6   Contour10=Gray5   Contour11=Gray4 _
        Contour12=Gray3   Contour13=Gray2   Contour14=Gray1Light   Contour15=White   Transpare=0   Ratio1=Gray2   Ratio2=Gray4   Ratio3=Gray8Dark   Ratio4=4210752   Ratio5=Black   RatioNotD=Gray4   RatioNotC=Black   RatioVal1=0.5 _
        RatioVal2=0.7   RatioVal3=0.9   RatioVal4=1   DFillPos=Gray8Dark   DFillNeg=Gray8Dark   DFillRPos=4210752   DFillRNeg=4210752
   DeviceType="Color Printer"   Contour1=13107400   Contour2=6553828   Contour3=Red   Contour4=16639   Contour5=Orange   Contour6=43775   Contour7=54527   Contour8=Yellow   Contour9=65408   Contour10=Green   Contour11=8453888 _
        Contour12=Cyan   Contour13=16755200   Contour14=16733440   Contour15=Blue   Transpare=0   Ratio1=Cyan   Ratio2=Green   Ratio3=Yellow   Ratio4=Orange   Ratio5=Red   RatioNotD=Gray4   RatioNotC=Red   RatioVal1=0.5   RatioVal2=0.7 _
        RatioVal3=0.9   RatioVal4=1   DFillPos=Blue   DFillNeg=Red   DFillRPos=Green   DFillRNeg=Green
 
TABLE:  "PREFERENCES - ALUMINUM DESIGN - AA 2015"
   THDesign=Envelopes   SRatioLimit=1   Provision=LRFD   LatFact=1.33333333333333   UseLatFact=No   Bridge=No   PhiTy=0.9   PhiTr=0.75   PhiC=0.9   PhiBo=0.9   PhiBr=0.75   PhiVo=0.9   PhiVr=0.75
 
TABLE:  "PREFERENCES - COLD FORMED DESIGN - AISI-16"
   THDesign=Envelopes   FrameType="Braced Frame"   SRatioLimit=1   SOMethod="General 2nd Order"   Provision=LRFD   LatFact=1.33333333333333   UseLatFact=No   PhiTy=0.9   PhiTr=0.75   PhiC=0.85   PhiB=0.9   PhiBPipe=0.95   PhiV=0.95
 
TABLE:  "PREFERENCES - CONCRETE DESIGN - ACI 318-19"
   THDesign=Envelopes   NumCurves=24   NumPoints=11   MinEccen=Yes   BCCDesign=Yes   IgnoreBPu=Yes   CTorsion=Yes   PatLLF=0.75   UFLimit=0.95   SeisCat=D   Rho=1   Sds=0.5   PhiT=0.9   PhiCTied=0.65   PhiCSpiral=0.75   PhiV=0.75 _
        PhiVSeismic=0.6   PhiVJoint=0.85   TanTheta=1
 
TABLE:  "PREFERENCES - CONCRETE SHELL DESIGN - EUROCODE 2-2004"
   Country="CEN Default"   GammaS=1.15   GammaC=1.5   AlphaCC=1   AlphaCT=1   CrackCond="Program Determined"   ShrDesMet="Method 1"   CotTheta=1
 
TABLE:  "PREFERENCES - DIMENSIONAL"
   MergeTol=0.1   FineGrid=12   Nudge=12   SelectTol=3   SnapTol=12   SLineThick=1   PLineThick=4   MaxFont=8   MinFont=3   AutoZoom=10   ShrinkFact=70   TextFileLen=240
 
TABLE:  "PREFERENCES - STEEL DESIGN - AISC 360-16"
   THDesign=Envelopes   FrameType=SMF   PatLLF=0.75   SRatioLimit=0.95   MaxIter=1   SDC=D   SeisCode=No   SeisLoad=No   ImpFactor=1   SystemRho=1   SystemSds=0.5   SystemR=8   SystemCd=5.5   Omega0=3   Provision=LRFD _
        AMethod="Direct Analysis"   SOMethod="General 2nd Order"   SRMethod="Tau-b Fixed"   NLCoeff=0.002   PhiB=0.9   PhiC=0.9   PhiTY=0.9   PhiTF=0.75   PhiV=0.9   PhiVRolledI=1   PhiVT=0.9   PlugWeld=Yes   HSSWelding=ERW   HSSReduceT=No _
        CheckDefl=No   DLRat=120   SDLAndLLRat=120   LLRat=360   TotalRat=240   NetRat=240
 
TABLE:  "PROGRAM CONTROL"
   ProgramName=SAP2000   Version=24.1.0   CurrUnits="Kip, in, F"   SteelCode="AISC 360-16"   ConcCode="ACI 318-19"   AlumCode="AA 2015"   ColdCode=AISI-16   RegenHinge=Yes
 
TABLE:  "PROJECT INFORMATION"
   Item="Company Name"
   Item="Client Name"
   Item="Project Name"
   Item="Project Number"
   Item="Model Name"
   Item="Model Description"
   Item="Revision Number"
   Item="Frame Type"
   Item=Engineer
   Item=Checker
   Item=Supervisor
   Item="Issue Code"
   Item="Design Code"
 
TABLE:  "REBAR SIZES"
   RebarID=#2   Area=0.05   Diameter=0.25
   RebarID=#3   Area=0.109999999403954   Diameter=0.375
   RebarID=#4   Area=0.200000002980232   Diameter=0.5
   RebarID=#5   Area=0.310000002384186   Diameter=0.625
   RebarID=#6   Area=0.439999997615814   Diameter=0.75
   RebarID=#7   Area=0.600000023841858   Diameter=0.875
   RebarID=#8   Area=0.790000021457672   Diameter=1
   RebarID=#9   Area=1   Diameter=1.12800002098083
   RebarID=#10   Area=1.26999998092651   Diameter=1.26999998092651
   RebarID=#11   Area=1.55999994277954   Diameter=1.4099999666214
   RebarID=#14   Area=2.25   Diameter=1.692999958992
   RebarID=#18   Area=4   Diameter=2.25699996948242
   RebarID=10M   Area=0.155000314116478   Diameter=0.444881916046143
   RebarID=15M   Area=0.310000628232956   Diameter=0.62992125749588
   RebarID=20M   Area=0.465000957250595   Diameter=0.767716526985168
   RebarID=25M   Area=0.775001585483551   Diameter=0.992126047611237
   RebarID=30M   Area=1.08500218391418   Diameter=1.17716538906097
   RebarID=35M   Area=1.5500031709671   Diameter=1.4055118560791
   RebarID=45M   Area=2.3250048160553   Diameter=1.72047245502472
   RebarID=55M   Area=3.87500786781311   Diameter=2.22047257423401
   RebarID=6d   Area=0.0438650883734226   Diameter=0.236220479011536
   RebarID=8d   Area=0.0779651552438736   Diameter=0.31496062874794
   RebarID=10d   Area=0.121675245463848   Diameter=0.393700778484344
   RebarID=12d   Area=0.175150364637375   Diameter=0.472440958023071
   RebarID=14d   Area=0.238700494170189   Diameter=0.551181137561798
   RebarID=16d   Area=0.31155064702034   Diameter=0.62992125749588
   RebarID=20d   Area=0.486700981855392   Diameter=0.787401556968689
   RebarID=25d   Area=0.761051535606384   Diameter=0.984251976013184
   RebarID=26d   Area=0.823051691055298   Diameter=1.02362203598022
   RebarID=28d   Area=0.954801976680756   Diameter=1.1023622751236
   RebarID=N12   Area=0.175150364637375   Diameter=0.472440958023071
   RebarID=N16   Area=0.31155064702034   Diameter=0.62992125749588
   RebarID=N20   Area=0.486700981855392   Diameter=0.787401556968689
   RebarID=N24   Area=0.7006014585495   Diameter=0.944881916046143
   RebarID=N28   Area=0.954801976680756   Diameter=1.1023622751236
   RebarID=N32   Area=1.24620258808136   Diameter=1.25984251499176
   RebarID=N36   Area=1.58100318908691   Diameter=1.41732287406921
 
END TABLE DATA
