File C:\Users\j-b-j\Documents\Calcpad-7.5.7\SAP2000_Losa_v4.$2k was saved on m/d/yy at h:mm:ss
 
TABLE:  "ACTIVE DEGREES OF FREEDOM"
   UX=Yes   UY=Yes   UZ=Yes   RX=Yes   RY=Yes   RZ=Yes
 
TABLE:  "ANALYSIS OPTIONS"
   Solver=Advanced   SolverProc=Auto   Force32Bit=No   StiffCase=None   GeomMod=None   HingeOpt="In Elements"   NumAThreads=0   MaxFileSize=0   NumDThreads=0   NumRThreads=0   UseMMFiles="Program Determined"   AllowDiff=No
 
TABLE:  "AREA LOADS - UNIFORM"
   Area=E1   LoadPat=DEAD   CoordSys=GLOBAL   Dir=Z   UnifLoad=0.00145037725185479
   Area=E2   LoadPat=DEAD   CoordSys=GLOBAL   Dir=Z   UnifLoad=0.00145037725185479
   Area=E3   LoadPat=DEAD   CoordSys=GLOBAL   Dir=Z   UnifLoad=0.00145037725185479
   Area=E4   LoadPat=DEAD   CoordSys=GLOBAL   Dir=Z   UnifLoad=0.00145037725185479
   Area=E5   LoadPat=DEAD   CoordSys=GLOBAL   Dir=Z   UnifLoad=0.00145037725185479
   Area=E6   LoadPat=DEAD   CoordSys=GLOBAL   Dir=Z   UnifLoad=0.00145037725185479
   Area=E7   LoadPat=DEAD   CoordSys=GLOBAL   Dir=Z   UnifLoad=0.00145037725185479
   Area=E8   LoadPat=DEAD   CoordSys=GLOBAL   Dir=Z   UnifLoad=0.00145037725185479
   Area=E9   LoadPat=DEAD   CoordSys=GLOBAL   Dir=Z   UnifLoad=0.00145037725185479
   Area=E10   LoadPat=DEAD   CoordSys=GLOBAL   Dir=Z   UnifLoad=0.00145037725185479
   Area=E11   LoadPat=DEAD   CoordSys=GLOBAL   Dir=Z   UnifLoad=0.00145037725185479
   Area=E12   LoadPat=DEAD   CoordSys=GLOBAL   Dir=Z   UnifLoad=0.00145037725185479
   Area=E13   LoadPat=DEAD   CoordSys=GLOBAL   Dir=Z   UnifLoad=0.00145037725185479
   Area=E14   LoadPat=DEAD   CoordSys=GLOBAL   Dir=Z   UnifLoad=0.00145037725185479
   Area=E15   LoadPat=DEAD   CoordSys=GLOBAL   Dir=Z   UnifLoad=0.00145037725185479
   Area=E16   LoadPat=DEAD   CoordSys=GLOBAL   Dir=Z   UnifLoad=0.00145037725185479
   Area=E17   LoadPat=DEAD   CoordSys=GLOBAL   Dir=Z   UnifLoad=0.00145037725185479
   Area=E18   LoadPat=DEAD   CoordSys=GLOBAL   Dir=Z   UnifLoad=0.00145037725185479
   Area=E19   LoadPat=DEAD   CoordSys=GLOBAL   Dir=Z   UnifLoad=0.00145037725185479
   Area=E20   LoadPat=DEAD   CoordSys=GLOBAL   Dir=Z   UnifLoad=0.00145037725185479
# ... 4 like lines cut
 
TABLE:  "AREA SECTION ASSIGNMENTS"
   Area=E1   Section=LOSA   MatProp=Default
   Area=E2   Section=LOSA   MatProp=Default
   Area=E3   Section=LOSA   MatProp=Default
   Area=E4   Section=LOSA   MatProp=Default
   Area=E5   Section=LOSA   MatProp=Default
   Area=E6   Section=LOSA   MatProp=Default
   Area=E7   Section=LOSA   MatProp=Default
   Area=E8   Section=LOSA   MatProp=Default
   Area=E9   Section=LOSA   MatProp=Default
   Area=E10   Section=LOSA   MatProp=Default
   Area=E11   Section=LOSA   MatProp=Default
   Area=E12   Section=LOSA   MatProp=Default
   Area=E13   Section=LOSA   MatProp=Default
   Area=E14   Section=LOSA   MatProp=Default
   Area=E15   Section=LOSA   MatProp=Default
   Area=E16   Section=LOSA   MatProp=Default
   Area=E17   Section=LOSA   MatProp=Default
   Area=E18   Section=LOSA   MatProp=Default
   Area=E19   Section=LOSA   MatProp=Default
   Area=E20   Section=LOSA   MatProp=Default
# ... 4 like lines cut
 
TABLE:  "AREA SECTION PROPERTIES"
   Section=LOSA   Material=CONC   MatAngle=0   AreaType=Shell   Type=Plate-Thick   Thickness=3.93700787401575   BendThick=3.93700787401575   Color=Black   F11Mod=1   F22Mod=1   F12Mod=1   M11Mod=1   M22Mod=1   M12Mod=1   V13Mod=1   V23Mod=1 _
        MMod=1   WMod=1
 
TABLE:  "AREA SECTION PROPERTY DESIGN PARAMETERS"
   Section=LOSA   RebarMat=None   RebarOpt=Default
 
TABLE:  "AREA SECTION PROPERTY - TIME DEPENDENT"
   Section=LOSA   TypeSize=Auto   AutoSFSize=1
 
TABLE:  "AUTO WAVE 3 - WAVE CHARACTERISTICS - GENERAL"
   WaveChar=Default   WaveType="From Theory"   KinFactor=1   SWaterDepth=1800   WaveHeight=720   WavePeriod=12   WaveTheory=Linear
 
TABLE:  "CASE - MODAL 1 - GENERAL"
   Case=MODAL   ModeType=Eigen   MaxNumModes=12   MinNumModes=1   EigenShift=0   EigenCutoff=0   EigenTol=1E-09   AutoShift=Yes
 
TABLE:  "CASE - STATIC 1 - LOAD ASSIGNMENTS"
   Case=DEAD   LoadType="Load pattern"   LoadName=DEAD   LoadSF=1
 
TABLE:  "CONNECTIVITY - AREA"
   Area=E1   Joint1=1   Joint2=6   Joint3=7   Joint4=2   GUID=e08f23a0-dc01-4b51-b00a-c5b546c5b9d8
   Area=E2   Joint1=2   Joint2=7   Joint3=8   Joint4=3   GUID=dbe3c60c-36e1-45ef-ad85-1ac5eb26a503
   Area=E3   Joint1=3   Joint2=8   Joint3=9   Joint4=4   GUID=5a1f8448-c571-4d2f-9803-ba5576ba1ebd
   Area=E4   Joint1=4   Joint2=9   Joint3=10   Joint4=5   GUID=7c2e2b04-1594-4f63-b273-4da42a49fd1d
   Area=E5   Joint1=6   Joint2=11   Joint3=12   Joint4=7   GUID=8a220e91-9037-4c75-ae0f-381b54219000
   Area=E6   Joint1=7   Joint2=12   Joint3=13   Joint4=8   GUID=713ad531-2bbf-4538-b2e9-454f7adefe57
   Area=E7   Joint1=8   Joint2=13   Joint3=14   Joint4=9   GUID=f659d1a4-3fff-43c6-b00c-7a26bbe5250a
   Area=E8   Joint1=9   Joint2=14   Joint3=15   Joint4=10   GUID=9260763e-53d9-434e-9910-1a9f43ac31c9
   Area=E9   Joint1=11   Joint2=16   Joint3=17   Joint4=12   GUID=49224778-c61f-41b1-84aa-a168e90d56f0
   Area=E10   Joint1=12   Joint2=17   Joint3=18   Joint4=13   GUID=752a184b-2114-44c1-8917-94b1c6322ebb
   Area=E11   Joint1=13   Joint2=18   Joint3=19   Joint4=14   GUID=1aa896cb-8856-436f-9c42-936da730fdd1
   Area=E12   Joint1=14   Joint2=19   Joint3=20   Joint4=15   GUID=be0693fa-5f10-4091-8bd3-08b55e0dfa7f
   Area=E13   Joint1=16   Joint2=21   Joint3=22   Joint4=17   GUID=35feab95-d645-44e7-9de6-64d12b8eae2d
   Area=E14   Joint1=17   Joint2=22   Joint3=23   Joint4=18   GUID=3144f23c-987e-48ae-91b6-177f5bf3dfa1
   Area=E15   Joint1=18   Joint2=23   Joint3=24   Joint4=19   GUID=be18e50e-e49f-443f-8ef0-5f3be5d4ca95
   Area=E16   Joint1=19   Joint2=24   Joint3=25   Joint4=20   GUID=4fb31490-0676-412a-a2bb-044c6a2af92f
   Area=E17   Joint1=21   Joint2=26   Joint3=27   Joint4=22   GUID=01bef19c-3e03-495c-b853-34358a36ea08
   Area=E18   Joint1=22   Joint2=27   Joint3=28   Joint4=23   GUID=6665af84-6082-49ad-9258-508b753567fe
   Area=E19   Joint1=23   Joint2=28   Joint3=29   Joint4=24   GUID=f9137062-cd01-4bd6-b152-69ac44ed8801
   Area=E20   Joint1=24   Joint2=29   Joint3=30   Joint4=25   GUID=45c790f0-58cd-4046-b0cc-e12836b62651
   Area=E21   Joint1=26   Joint2=31   Joint3=32   Joint4=27   GUID=45b8cf7b-85be-456d-a911-f0e2eec7ae68
   Area=E22   Joint1=27   Joint2=32   Joint3=33   Joint4=28   GUID=5d618372-bc6f-408a-b018-3b7679c88c94
   Area=E23   Joint1=28   Joint2=33   Joint3=34   Joint4=29   GUID=bfd2a1c1-71a3-4db2-8a9f-1e47c66a7849
   Area=E24   Joint1=29   Joint2=34   Joint3=35   Joint4=30   GUID=eae8534b-10aa-4f14-ae0f-c6b9c838b640
 
TABLE:  "COORDINATE SYSTEMS"
   Name=GLOBAL   Type=Cartesian   X=0   Y=0   Z=0   AboutZ=0   AboutY=0   AboutX=0
 
TABLE:  "DATABASE DOCUMENTATION"
 
TABLE:  "DATABASE FORMAT TYPES"
   UnitsCurr=Yes   OverrideE=No
 
TABLE:  "FUNCTION - PLOT FUNCTIONS"
   PlotFunc="Input Energy"   Type=Energy   Component=Input   Mode=All
 
TABLE:  "FUNCTION - POWER SPECTRAL DENSITY - USER"
   Name=UNIFPSD   Frequency=0   Value=1
   Name=UNIFPSD   Frequency=1   Value=1
 
TABLE:  "FUNCTION - RESPONSE SPECTRUM - USER"
   Name=UNIFRS   Period=0   Accel=1   FuncDamp=0.05
   Name=UNIFRS   Period=1   Accel=1
 
TABLE:  "FUNCTION - STEADY STATE - USER"
   Name=UNIFSS   Frequency=0   Value=1
   Name=UNIFSS   Frequency=1   Value=1
 
TABLE:  "FUNCTION - TIME HISTORY - USER"
   Name=RAMPTH   Time=0   Value=0
   Name=RAMPTH   Time=1   Value=1
   Name=RAMPTH   Time=4   Value=1
   Name=UNIFTH   Time=0   Value=1
   Name=UNIFTH   Time=1   Value=1
 
TABLE:  "GROUPS 1 - DEFINITIONS"
   GroupName=ALL   Selection=Yes   SectionCut=Yes   Steel=Yes   Concrete=Yes   Aluminum=Yes   ColdFormed=Yes   Stage=Yes   Bridge=Yes   AutoSeismic=No   AutoWind=No   SelDesSteel=No   SelDesAlum=No   SelDesCold=No   MassWeight=Yes   Color=Red
 
TABLE:  "JOINT COORDINATES"
   Joint=1   CoordSys=GLOBAL   CoordType=Cartesian   XorR=0   Y=0   Z=0   SpecialJt=Yes   GUID=13be10b7-f684-42d9-94d8-a91e881c2cbe
   Joint=2   CoordSys=GLOBAL   CoordType=Cartesian   XorR=0   Y=39.3700787401575   Z=0   SpecialJt=Yes   GUID=01b63b8e-90b0-470c-8598-660f05776606
   Joint=3   CoordSys=GLOBAL   CoordType=Cartesian   XorR=0   Y=78.740157480315   Z=0   SpecialJt=Yes   GUID=d1c41b8c-8139-4a6b-8b29-f9e31a3ec918
   Joint=4   CoordSys=GLOBAL   CoordType=Cartesian   XorR=0   Y=118.110236220472   Z=0   SpecialJt=Yes   GUID=cbb24ac9-f10d-492d-a83e-aa7212d17f4c
   Joint=5   CoordSys=GLOBAL   CoordType=Cartesian   XorR=0   Y=157.48031496063   Z=0   SpecialJt=Yes   GUID=1237f10f-5998-4762-bcbd-29bf38d04e5c
   Joint=6   CoordSys=GLOBAL   CoordType=Cartesian   XorR=39.3700787401575   Y=0   Z=0   SpecialJt=Yes   GUID=f7be4e43-e9b2-46d4-ae52-c6a72657f085
   Joint=7   CoordSys=GLOBAL   CoordType=Cartesian   XorR=39.3700787401575   Y=39.3700787401575   Z=0   SpecialJt=Yes   GUID=36a5e132-5126-4e8a-8c30-bb7dea5a4934
   Joint=8   CoordSys=GLOBAL   CoordType=Cartesian   XorR=39.3700787401575   Y=78.740157480315   Z=0   SpecialJt=Yes   GUID=d627c698-a905-416e-8720-dc71f4ce5af7
   Joint=9   CoordSys=GLOBAL   CoordType=Cartesian   XorR=39.3700787401575   Y=118.110236220472   Z=0   SpecialJt=Yes   GUID=9a620277-fa3d-46e7-947f-c02af379a91a
   Joint=10   CoordSys=GLOBAL   CoordType=Cartesian   XorR=39.3700787401575   Y=157.48031496063   Z=0   SpecialJt=Yes   GUID=8bf42ec9-aae5-4051-9063-f39160630134
   Joint=11   CoordSys=GLOBAL   CoordType=Cartesian   XorR=78.740157480315   Y=0   Z=0   SpecialJt=Yes   GUID=2a8d2175-a89d-4675-ab2b-8722be00aa6d
   Joint=12   CoordSys=GLOBAL   CoordType=Cartesian   XorR=78.740157480315   Y=39.3700787401575   Z=0   SpecialJt=Yes   GUID=a8f6c16b-1788-4ee6-8140-b82cd6afda12
   Joint=13   CoordSys=GLOBAL   CoordType=Cartesian   XorR=78.740157480315   Y=78.740157480315   Z=0   SpecialJt=Yes   GUID=42fa7d06-180b-4dee-86fb-4b39235fa961
   Joint=14   CoordSys=GLOBAL   CoordType=Cartesian   XorR=78.740157480315   Y=118.110236220472   Z=0   SpecialJt=Yes   GUID=f8ae5acb-82a1-47bb-af9a-9cfa3033625d
   Joint=15   CoordSys=GLOBAL   CoordType=Cartesian   XorR=78.740157480315   Y=157.48031496063   Z=0   SpecialJt=Yes   GUID=ab3eaa74-0ebe-405a-a362-385631f3e8a6
   Joint=16   CoordSys=GLOBAL   CoordType=Cartesian   XorR=118.110236220472   Y=0   Z=0   SpecialJt=Yes   GUID=34de299c-8f87-4d44-9faa-6ffced8c746e
   Joint=17   CoordSys=GLOBAL   CoordType=Cartesian   XorR=118.110236220472   Y=39.3700787401575   Z=0   SpecialJt=Yes   GUID=5447bc47-73bd-47f2-bdbd-5fd66c6e56da
   Joint=18   CoordSys=GLOBAL   CoordType=Cartesian   XorR=118.110236220472   Y=78.740157480315   Z=0   SpecialJt=Yes   GUID=14b32de5-9137-4670-a691-c7ed21dc57db
   Joint=19   CoordSys=GLOBAL   CoordType=Cartesian   XorR=118.110236220472   Y=118.110236220472   Z=0   SpecialJt=Yes   GUID=d4b95b69-406e-43fc-a4e8-d8525168d79c
   Joint=20   CoordSys=GLOBAL   CoordType=Cartesian   XorR=118.110236220472   Y=157.48031496063   Z=0   SpecialJt=Yes   GUID=bee6b7ce-249f-4408-ac34-c80e0d6ec679
   Joint=21   CoordSys=GLOBAL   CoordType=Cartesian   XorR=157.48031496063   Y=0   Z=0   SpecialJt=Yes   GUID=03795c09-8ba0-45e8-ae24-312a1e40c735
   Joint=22   CoordSys=GLOBAL   CoordType=Cartesian   XorR=157.48031496063   Y=39.3700787401575   Z=0   SpecialJt=Yes   GUID=b3757eae-76b6-4a5a-8e2e-7a45ca11be75
   Joint=23   CoordSys=GLOBAL   CoordType=Cartesian   XorR=157.48031496063   Y=78.740157480315   Z=0   SpecialJt=Yes   GUID=5605ef77-0461-40c8-ab31-9572876770d6
   Joint=24   CoordSys=GLOBAL   CoordType=Cartesian   XorR=157.48031496063   Y=118.110236220472   Z=0   SpecialJt=Yes   GUID=88af99ad-53af-429e-b8b2-00af857d48c7
   Joint=25   CoordSys=GLOBAL   CoordType=Cartesian   XorR=157.48031496063   Y=157.48031496063   Z=0   SpecialJt=Yes   GUID=fb72bd14-d983-4095-b491-4602ebbab965
   Joint=26   CoordSys=GLOBAL   CoordType=Cartesian   XorR=196.850393700787   Y=0   Z=0   SpecialJt=Yes   GUID=36760854-218e-40cc-ba39-14917b0582aa
   Joint=27   CoordSys=GLOBAL   CoordType=Cartesian   XorR=196.850393700787   Y=39.3700787401575   Z=0   SpecialJt=Yes   GUID=2440a1f0-94bf-4d83-a391-9355ef1aa17a
   Joint=28   CoordSys=GLOBAL   CoordType=Cartesian   XorR=196.850393700787   Y=78.740157480315   Z=0   SpecialJt=Yes   GUID=08fb6a70-595e-457e-af34-fac22c3d5ee9
   Joint=29   CoordSys=GLOBAL   CoordType=Cartesian   XorR=196.850393700787   Y=118.110236220472   Z=0   SpecialJt=Yes   GUID=b3a4225a-d13d-4507-b9f6-5e981598dfae
   Joint=30   CoordSys=GLOBAL   CoordType=Cartesian   XorR=196.850393700787   Y=157.48031496063   Z=0   SpecialJt=Yes   GUID=e045e29c-531d-451e-b020-460a4d595dd7
   Joint=31   CoordSys=GLOBAL   CoordType=Cartesian   XorR=236.220472440945   Y=0   Z=0   SpecialJt=Yes   GUID=305ce4d9-c540-4a66-87f8-6264b89148ba
   Joint=32   CoordSys=GLOBAL   CoordType=Cartesian   XorR=236.220472440945   Y=39.3700787401575   Z=0   SpecialJt=Yes   GUID=5913a84f-c931-461b-8e66-61c80ecca1e3
   Joint=33   CoordSys=GLOBAL   CoordType=Cartesian   XorR=236.220472440945   Y=78.740157480315   Z=0   SpecialJt=Yes   GUID=3700be6f-a1e0-497f-8aa4-0b866a20f68b
   Joint=34   CoordSys=GLOBAL   CoordType=Cartesian   XorR=236.220472440945   Y=118.110236220472   Z=0   SpecialJt=Yes   GUID=78ea5485-f26e-424e-a2f4-5eef38b20d88
   Joint=35   CoordSys=GLOBAL   CoordType=Cartesian   XorR=236.220472440945   Y=157.48031496063   Z=0   SpecialJt=Yes   GUID=1ddf4d4b-0e96-40de-9bed-927399107c91
 
TABLE:  "JOINT PATTERN DEFINITIONS"
   Pattern=Default
 
TABLE:  "JOINT RESTRAINT ASSIGNMENTS"
   Joint=1   U1=No   U2=No   U3=Yes   R1=No   R2=No   R3=No
   Joint=2   U1=No   U2=No   U3=Yes   R1=No   R2=No   R3=No
   Joint=3   U1=No   U2=No   U3=Yes   R1=No   R2=No   R3=No
   Joint=4   U1=No   U2=No   U3=Yes   R1=No   R2=No   R3=No
   Joint=5   U1=No   U2=No   U3=Yes   R1=No   R2=No   R3=No
   Joint=6   U1=No   U2=No   U3=Yes   R1=No   R2=No   R3=No
   Joint=10   U1=No   U2=No   U3=Yes   R1=No   R2=No   R3=No
   Joint=11   U1=No   U2=No   U3=Yes   R1=No   R2=No   R3=No
   Joint=15   U1=No   U2=No   U3=Yes   R1=No   R2=No   R3=No
   Joint=16   U1=No   U2=No   U3=Yes   R1=No   R2=No   R3=No
   Joint=20   U1=No   U2=No   U3=Yes   R1=No   R2=No   R3=No
   Joint=21   U1=No   U2=No   U3=Yes   R1=No   R2=No   R3=No
   Joint=25   U1=No   U2=No   U3=Yes   R1=No   R2=No   R3=No
   Joint=26   U1=No   U2=No   U3=Yes   R1=No   R2=No   R3=No
   Joint=30   U1=No   U2=No   U3=Yes   R1=No   R2=No   R3=No
   Joint=31   U1=No   U2=No   U3=Yes   R1=No   R2=No   R3=No
   Joint=32   U1=No   U2=No   U3=Yes   R1=No   R2=No   R3=No
   Joint=33   U1=No   U2=No   U3=Yes   R1=No   R2=No   R3=No
   Joint=34   U1=No   U2=No   U3=Yes   R1=No   R2=No   R3=No
   Joint=35   U1=No   U2=No   U3=Yes   R1=No   R2=No   R3=No
 
TABLE:  "LOAD CASE DEFINITIONS"
   Case=DEAD   Type=LinStatic   InitialCond=Zero   DesTypeOpt="Prog Det"   DesignType=Dead   DesActOpt="Prog Det"   DesignAct=Non-Composite   AutoType=None   RunCase=Yes   GUID=4d0ec243-b615-4e1b-bf72-5fe98e8ba272
   Case=MODAL   Type=LinModal   InitialCond=Zero   DesTypeOpt="Prog Det"   DesignType=Other   DesActOpt="Prog Det"   DesignAct=Other   AutoType=None   RunCase=Yes   GUID=69cc6b58-5466-4c4c-b072-3b228f23c1b5
 
TABLE:  "LOAD PATTERN DEFINITIONS"
   LoadPat=DEAD   DesignType=Dead   SelfWtMult=1   GUID=68bff7ef-cf9a-4255-aa83-29a825cbf4c0
 
TABLE:  "MASS SOURCE"
   MassSource=MSSSRC1   Elements=Yes   Masses=Yes   Loads=No   IsDefault=Yes
 
TABLE:  "MATERIAL PROPERTIES 01 - GENERAL"
   Material=4000Psi   Type=Concrete   Grade="f'c 4000 psi"   SymType=Isotropic   TempDepend=No   Color=Gray8Dark   GUID=c528cabb-9358-4c89-8dc6-4802db21e69c   Notes="Customary f'c 4000 psi 1/17/2026 11:02:50 AM"
   Material=A992Fy50   Type=Steel   Grade="Grade 50"   SymType=Isotropic   TempDepend=No   Color=Yellow   Notes="ASTM A992 Grade 50 1/17/2026 11:02:50 AM"
   Material=CONC   Type=Concrete   SymType=Isotropic   TempDepend=No   Color=Blue
 
TABLE:  "MATERIAL PROPERTIES 02 - BASIC MECHANICAL PROPERTIES"
   Material=4000Psi   UnitWeight=8.680555556E-05   UnitMass=2.248332521E-07   E1=3604.9965   G12=1502.081875   U12=0.2   A1=5.5E-06
   Material=A992Fy50   UnitWeight=0.000283564814814815   UnitMass=7.34455290352564E-07   E1=29000   G12=11153.8461538462   U12=0.3   A1=6.5E-06
   Material=CONC   UnitWeight=8.68055555555556E-05   UnitMass=2.24833252148744E-07   E1=5076.32038149175   G12=2207.09581803989   U12=0.15   A1=0
 
TABLE:  "MATERIAL PROPERTIES 03A - STEEL DATA"
   Material=A992Fy50   Fy=50   Fu=65   EffFy=55   EffFu=71.5   SSCurveOpt=Simple   SSHysType=Kinematic   SHard=0.015   SMax=0.11   SRup=0.17   FinalSlope=-0.1   CoupModType="Von Mises"
 
TABLE:  "MATERIAL PROPERTIES 03B - CONCRETE DATA"
   Material=4000Psi   Fc=4   eFc=4   LtWtConc=No   SSCurveOpt=Mander   SSHysType=Takeda   SFc=0.00221914   SCap=0.005   FinalSlope=-0.1   FAngle=0   DAngle=0   CoupModType="Modified Darwin-Pecknold"
   Material=CONC   Fc=4   eFc=4   LtWtConc=No   SSCurveOpt=Mander   SSHysType=Takeda   SFc=0.00221914221766202   SCap=0.005   FinalSlope=-0.1   FAngle=0   DAngle=0   CoupModType="Modified Darwin-Pecknold"
 
TABLE:  "MATERIAL PROPERTIES 03J - COUPLED NONLINEAR VON MISES DATA"
   Material=A992Fy50   YieldStress=55   LinIsoHard=No   LinKinHard=No   NLIsoSaHard=No
 
TABLE:  "MATERIAL PROPERTIES 06 - DAMPING PARAMETERS"
   Material=4000Psi   ModalRatio=0   VisMass=0   VisStiff=0   HysMass=0   HysStiff=0
   Material=A992Fy50   ModalRatio=0   VisMass=0   VisStiff=0   HysMass=0   HysStiff=0
   Material=CONC   ModalRatio=0   VisMass=0   VisStiff=0   HysMass=0   HysStiff=0
 
TABLE:  "MATERIAL PROPERTIES 09 - ACCEPTANCE CRITERIA"
   Material=4000Psi   IOTens=0.01   LSTens=0.02   CPTens=0.05   IOComp=-0.003   LSComp=-0.006   CPComp=-0.015   IgnoreTens=Yes
   Material=A992Fy50   IOTens=0.01   LSTens=0.02   CPTens=0.05   IOComp=-0.005   LSComp=-0.01   CPComp=-0.02
   Material=CONC   IOTens=0.01   LSTens=0.02   CPTens=0.05   IOComp=-0.003   LSComp=-0.006   CPComp=-0.015   IgnoreTens=Yes
 
TABLE:  "OPTIONS - COLORS - DISPLAY"
   DeviceType=Screen   Points=Blue   LinesFrame=Blue   LinesFrmDL=Blue   LinesCable=Green   LinesTendon=Green   SpringLinks=Green   Restraints=Green   Releases=Green   Axes=Cyan   Text=Black   ShadowLines=Gray8Dark   GuideLines=Gray8Dark _
        Highlight=Red   Selection=10504778   AreaFillBot=Red   AreaFillTop=16744703   AreaFillSd=Red   AreaEdge=DarkRed   SolidF1=Red   SolidF2=Blue   SolidF3=Green   SolidF4=Yellow   SolidF5=White   SolidF6=Cyan   SolidEdge=DarkRed _
        Floor=Gray4   Background=White   BGLowLeft=White   BGLowRight=White   BGUpRight=White   Darkness=0.5
   DeviceType=Printer   Points=Gray8Dark   LinesFrame=Black   LinesFrmDL=Gray4   LinesCable=Black   LinesTendon=Black   SpringLinks=Gray8Dark   Restraints=Gray8Dark   Releases=Gray4   Axes=Black   Text=Black   ShadowLines=Gray4 _
        GuideLines=Gray4   Highlight=Black   Selection=Black   AreaFillBot=Gray4   AreaFillTop=Gray8Dark   AreaFillSd=Gray4   AreaEdge=Black   SolidF1=Gray1Light   SolidF2=Gray2   SolidF3=Gray3   SolidF4=Gray4   SolidF5=Gray5 _
        SolidF6=Gray6   SolidEdge=Black   Floor=Gray4   Background=White   BGLowLeft=White   BGLowRight=White   BGUpRight=White   Darkness=0.5
   DeviceType="Color Printer"   Points=Blue   LinesFrame=Blue   LinesFrmDL=Blue   LinesCable=Green   LinesTendon=Green   SpringLinks=Green   Restraints=Green   Releases=Green   Axes=Cyan   Text=Black   ShadowLines=Gray8Dark _
        GuideLines=Gray8Dark   Highlight=Red   Selection=10504778   AreaFillBot=Red   AreaFillTop=16744703   AreaFillSd=Red   AreaEdge=DarkRed   SolidF1=Red   SolidF2=Blue   SolidF3=Green   SolidF4=Yellow   SolidF5=White   SolidF6=Cyan _
        SolidEdge=DarkRed   Floor=Gray4   Background=White   BGLowLeft=White   BGLowRight=White   BGUpRight=White   Darkness=0.5
 
TABLE:  "OPTIONS - COLORS - OUTPUT"
   DeviceType=Screen   Contour1=13107400   Contour2=6553828   Contour3=Red   Contour4=16639   Contour5=Orange   Contour6=43775   Contour7=54527   Contour8=Yellow   Contour9=65408   Contour10=Green   Contour11=8453888   Contour12=Cyan _
        Contour13=16755200   Contour14=16733440   Contour15=Blue   Transpare=0   Ratio1=Cyan   Ratio2=Green   Ratio3=Yellow   Ratio4=Orange   Ratio5=Red   RatioNotD=Gray4   RatioNotC=Red   RatioVal1=0.5   RatioVal2=0.7   RatioVal3=0.9 _
        RatioVal4=1   DFillPos=Blue   DFillNeg=Red   DFillRPos=Green   DFillRNeg=Green
   DeviceType=Printer   Contour1=Black   Contour2=3158064   Contour3=4210752   Contour4=5263440   Contour5=6316128   Contour6=7368816   Contour7=Gray8Dark   Contour8=Gray7   Contour9=Gray6   Contour10=Gray5   Contour11=Gray4 _
        Contour12=Gray3   Contour13=Gray2   Contour14=Gray1Light   Contour15=White   Transpare=0   Ratio1=Gray2   Ratio2=Gray4   Ratio3=Gray8Dark   Ratio4=4210752   Ratio5=Black   RatioNotD=Gray4   RatioNotC=Black   RatioVal1=0.5 _
        RatioVal2=0.7   RatioVal3=0.9   RatioVal4=1   DFillPos=Gray8Dark   DFillNeg=Gray8Dark   DFillRPos=4210752   DFillRNeg=4210752
   DeviceType="Color Printer"   Contour1=13107400   Contour2=6553828   Contour3=Red   Contour4=16639   Contour5=Orange   Contour6=43775   Contour7=54527   Contour8=Yellow   Contour9=65408   Contour10=Green   Contour11=8453888 _
        Contour12=Cyan   Contour13=16755200   Contour14=16733440   Contour15=Blue   Transpare=0   Ratio1=Cyan   Ratio2=Green   Ratio3=Yellow   Ratio4=Orange   Ratio5=Red   RatioNotD=Gray4   RatioNotC=Red   RatioVal1=0.5   RatioVal2=0.7 _
        RatioVal3=0.9   RatioVal4=1   DFillPos=Blue   DFillNeg=Red   DFillRPos=Green   DFillRNeg=Green
 
TABLE:  "PREFERENCES - ALUMINUM DESIGN - AA 2015"
   THDesign=Envelopes   SRatioLimit=1   Provision=LRFD   LatFact=1.33333333333333   UseLatFact=No   Bridge=No   PhiTy=0.9   PhiTr=0.75   PhiC=0.9   PhiBo=0.9   PhiBr=0.75   PhiVo=0.9   PhiVr=0.75
 
TABLE:  "PREFERENCES - COLD FORMED DESIGN - AISI-16"
   THDesign=Envelopes   FrameType="Braced Frame"   SRatioLimit=1   SOMethod="General 2nd Order"   Provision=LRFD   LatFact=1.33333333333333   UseLatFact=No   PhiTy=0.9   PhiTr=0.75   PhiC=0.85   PhiB=0.9   PhiBPipe=0.95   PhiV=0.95
 
TABLE:  "PREFERENCES - CONCRETE DESIGN - ACI 318-19"
   THDesign=Envelopes   NumCurves=24   NumPoints=11   MinEccen=Yes   BCCDesign=Yes   IgnoreBPu=Yes   CTorsion=Yes   PatLLF=0.75   UFLimit=0.95   SeisCat=D   Rho=1   Sds=0.5   PhiT=0.9   PhiCTied=0.65   PhiCSpiral=0.75   PhiV=0.75 _
        PhiVSeismic=0.6   PhiVJoint=0.85   TanTheta=1
 
TABLE:  "PREFERENCES - CONCRETE SHELL DESIGN - EUROCODE 2-2004"
   Country="CEN Default"   GammaS=1.15   GammaC=1.5   AlphaCC=1   AlphaCT=1   CrackCond="Program Determined"   ShrDesMet="Method 1"   CotTheta=1
 
TABLE:  "PREFERENCES - DIMENSIONAL"
   MergeTol=0.1   FineGrid=12   Nudge=12   SelectTol=3   SnapTol=12   SLineThick=1   PLineThick=4   MaxFont=8   MinFont=3   AutoZoom=10   ShrinkFact=70   TextFileLen=240
 
TABLE:  "PREFERENCES - STEEL DESIGN - AISC 360-16"
   THDesign=Envelopes   FrameType=SMF   PatLLF=0.75   SRatioLimit=0.95   MaxIter=1   SDC=D   SeisCode=No   SeisLoad=No   ImpFactor=1   SystemRho=1   SystemSds=0.5   SystemR=8   SystemCd=5.5   Omega0=3   Provision=LRFD _
        AMethod="Direct Analysis"   SOMethod="General 2nd Order"   SRMethod="Tau-b Fixed"   NLCoeff=0.002   PhiB=0.9   PhiC=0.9   PhiTY=0.9   PhiTF=0.75   PhiV=0.9   PhiVRolledI=1   PhiVT=0.9   PlugWeld=Yes   HSSWelding=ERW   HSSReduceT=No _
        CheckDefl=No   DLRat=120   SDLAndLLRat=120   LLRat=360   TotalRat=240   NetRat=240
 
TABLE:  "PROGRAM CONTROL"
   ProgramName=SAP2000   Version=24.1.0   CurrUnits="Kip, in, F"   SteelCode="AISC 360-16"   ConcCode="ACI 318-19"   AlumCode="AA 2015"   ColdCode=AISI-16   RegenHinge=Yes
 
TABLE:  "PROJECT INFORMATION"
   Item="Company Name"
   Item="Client Name"
   Item="Project Name"
   Item="Project Number"
   Item="Model Name"
   Item="Model Description"
   Item="Revision Number"
   Item="Frame Type"
   Item=Engineer
   Item=Checker
   Item=Supervisor
   Item="Issue Code"
   Item="Design Code"
 
TABLE:  "REBAR SIZES"
   RebarID=#2   Area=0.05   Diameter=0.25
   RebarID=#3   Area=0.109999999403954   Diameter=0.375
   RebarID=#4   Area=0.200000002980232   Diameter=0.5
   RebarID=#5   Area=0.310000002384186   Diameter=0.625
   RebarID=#6   Area=0.439999997615814   Diameter=0.75
   RebarID=#7   Area=0.600000023841858   Diameter=0.875
   RebarID=#8   Area=0.790000021457672   Diameter=1
   RebarID=#9   Area=1   Diameter=1.12800002098083
   RebarID=#10   Area=1.26999998092651   Diameter=1.26999998092651
   RebarID=#11   Area=1.55999994277954   Diameter=1.4099999666214
   RebarID=#14   Area=2.25   Diameter=1.692999958992
   RebarID=#18   Area=4   Diameter=2.25699996948242
   RebarID=10M   Area=0.155000314116478   Diameter=0.444881916046143
   RebarID=15M   Area=0.310000628232956   Diameter=0.62992125749588
   RebarID=20M   Area=0.465000957250595   Diameter=0.767716526985168
   RebarID=25M   Area=0.775001585483551   Diameter=0.992126047611237
   RebarID=30M   Area=1.08500218391418   Diameter=1.17716538906097
   RebarID=35M   Area=1.5500031709671   Diameter=1.4055118560791
   RebarID=45M   Area=2.3250048160553   Diameter=1.72047245502472
   RebarID=55M   Area=3.87500786781311   Diameter=2.22047257423401
   RebarID=6d   Area=0.0438650883734226   Diameter=0.236220479011536
   RebarID=8d   Area=0.0779651552438736   Diameter=0.31496062874794
   RebarID=10d   Area=0.121675245463848   Diameter=0.393700778484344
   RebarID=12d   Area=0.175150364637375   Diameter=0.472440958023071
   RebarID=14d   Area=0.238700494170189   Diameter=0.551181137561798
   RebarID=16d   Area=0.31155064702034   Diameter=0.62992125749588
   RebarID=20d   Area=0.486700981855392   Diameter=0.787401556968689
   RebarID=25d   Area=0.761051535606384   Diameter=0.984251976013184
   RebarID=26d   Area=0.823051691055298   Diameter=1.02362203598022
   RebarID=28d   Area=0.954801976680756   Diameter=1.1023622751236
   RebarID=N12   Area=0.175150364637375   Diameter=0.472440958023071
   RebarID=N16   Area=0.31155064702034   Diameter=0.62992125749588
   RebarID=N20   Area=0.486700981855392   Diameter=0.787401556968689
   RebarID=N24   Area=0.7006014585495   Diameter=0.944881916046143
   RebarID=N28   Area=0.954801976680756   Diameter=1.1023622751236
   RebarID=N32   Area=1.24620258808136   Diameter=1.25984251499176
   RebarID=N36   Area=1.58100318908691   Diameter=1.41732287406921
 
END TABLE DATA
